lig_338
     RDKit          3D

 27 29  0  0  1  0  0  0  0  0999 V2000
   27.6536    1.6916  -11.1016 O   0  0  0  0  0  0  0  0  0  0  0  0
   27.3007    0.4115  -11.6097 C   0  0  1  0  0  0  0  0  0  0  0  0
   26.1556   -0.1439  -10.8005 C   0  0  0  0  0  0  0  0  0  0  0  0
   24.9563    0.0051  -11.4897 C   0  0  0  0  0  0  0  0  0  0  0  0
   23.7245   -0.3780  -10.9409 C   0  0  0  0  0  0  0  0  0  0  0  0
   22.6077   -0.2314  -11.7247 O   0  0  0  0  0  0  0  0  0  0  0  0
   21.3770   -0.5061  -11.2040 C   0  0  0  0  0  0  0  0  0  0  0  0
   20.7885   -1.7666  -11.4208 C   0  0  0  0  0  0  0  0  0  0  0  0
   19.5114   -2.0367  -10.8968 C   0  0  0  0  0  0  0  0  0  0  0  0
   18.9362   -3.2400  -11.1026 F   0  0  0  0  0  0  0  0  0  0  0  0
   18.8225   -1.0495  -10.1701 C   0  0  0  0  0  0  0  0  0  0  0  0
   19.4048    0.2199   -9.9767 C   0  0  0  0  0  0  0  0  0  0  0  0
   18.6995    1.2572   -9.2559 C   0  0  0  0  0  0  0  0  0  0  0  0
   18.1401    2.0775   -8.6758 N   0  0  0  0  0  0  0  0  0  0  0  0
   20.6892    0.4853  -10.4809 C   0  0  0  0  0  0  0  0  0  0  0  0
   23.7230   -0.8931   -9.6179 C   0  0  0  0  0  0  0  0  0  0  0  0
   24.9352   -1.0438   -8.9066 C   0  0  0  0  0  0  0  0  0  0  0  0
   26.1657   -0.6909   -9.5003 C   0  0  0  0  0  0  0  0  0  0  0  0
   27.6830   -0.9452   -8.5829 S   0  0  0  0  0  0  0  0  0  0  0  0
   27.4340   -1.8771   -7.4785 O   0  0  0  0  0  0  0  0  0  0  0  0
   28.7783   -1.2193   -9.5126 O   0  0  0  0  0  0  0  0  0  0  0  0
   27.9672    0.6058   -7.9072 N   0  0  0  0  0  0  0  0  0  0  0  0
   25.1666    0.6479  -12.8327 C   0  0  1  0  0  0  0  0  0  0  0  0
   24.8220    1.9180  -12.6758 F   0  0  0  0  0  0  0  0  0  0  0  0
   26.6882    0.5470  -13.0288 C   0  0  0  0  0  0  0  0  0  0  0  0
   27.2125    1.5320  -13.7614 F   0  0  0  0  0  0  0  0  0  0  0  0
   26.9121   -0.5907  -13.6902 F   0  0  0  0  0  0  0  0  0  0  0  0
  2  1  1  1
  2 25  1  0
  2  3  1  0
  3 18  1  0
  3  4  2  0
  4  5  1  0
  4 23  1  0
  5  6  1  0
  5 16  2  0
  6  7  1  0
  7 15  1  0
  7  8  2  0
  8  9  1  0
  9 10  1  0
  9 11  2  0
 11 12  1  0
 12 13  1  0
 12 15  2  0
 13 14  3  0
 16 17  1  0
 17 18  2  0
 18 19  1  0
 19 20  2  0
 19 21  2  0
 19 22  1  0
 23 24  1  1
 23 25  1  0
 25 26  1  0
 25 27  1  0
M  END
>  <s_m_source_file>  (1) 
ligprep_hif2a.smi

>  <i_m_source_file_index>  (1) 
30

>  <i_lp_mmshare_version>  (1) 
53161

>  <i_f3d_flags>  (1) 
0

>  <s_epik_input>  (1) 
W09IXVtDQEBIXTFDKEYpKEYpW0NASF0oRiljKGMxMiljKFtjSF1bY0hdYzJTKD1PKSg9TylbTkgyXSlPYzNbY0hdYyhGKVtjSF1jKEMjTilbY0hdMw==

>  <s_epik_cmdline>  (1) 
J2VwaWtfcHl0aG9uJywgJy1waHQnLCAnMC4wJywgJy1waCcsICc3LjQnLCAnLXRuJywgJzgnLCAnLW1hJywgJzUwMCcsICctaW1hZScsICc8aW5maWxlLm1hZT4nLCAnLW9tYWUnLCAnPG91dGZpbGUubWFlPic=

>  <r_lp_tautomer_probability>  (1) 
1

>  <r_epik_Ionization_Penalty>  (1) 
  0.0180

>  <r_epik_Ionization_Penalty_Charging>  (1) 
  0.0000

>  <r_epik_Ionization_Penalty_Neutral>  (1) 
  0.0180

>  <r_epik_State_Penalty>  (1) 
 -0.0000

>  <r_epik_Charging_Adjusted_Penalty>  (1) 
0

>  <i_epik_Tot_Q>  (1) 
0

>  <i_epik_Tot_abs_Q>  (1) 
0

>  <s_lp_Force_Field>  (1) 
S-OPLS

>  <r_lp_Energy>  (1) 
18.5661

>  <b_lp_Chiralities_Consistent>  (1) 
1

>  <s_lp_Variant>  (1) 
lig_338-1

>  <s_i_glide_gridfile>  (1) 
glide-grid_HIF2a-5TBM

>  <i_i_glide_lignum>  (1) 
30

>  <i_i_glide_rotatable_bonds>  (1) 
4

>  <r_i_docking_score>  (1) 
-11.1982950202893

>  <r_i_glide_ligand_efficiency>  (1) 
-0.414751667418122

>  <r_i_glide_ligand_efficiency_sa>  (1) 
-1.24425500088741

>  <r_i_glide_ligand_efficiency_ln>  (1) 
-2.60677846240123

>  <r_i_glide_gscore>  (1) 
-11.1982950202893

>  <r_i_glide_lipo>  (1) 
-4.46122460677722

>  <r_i_glide_hbond>  (1) 
-0.32

>  <r_i_glide_metal>  (1) 
-0

>  <r_i_glide_rewards>  (1) 
-3.30507630499721

>  <r_i_glide_evdw>  (1) 
-53.5850486755371

>  <r_i_glide_ecoul>  (1) 
-6.11775588989258

>  <r_i_glide_erotb>  (1) 
0.484921708745883

>  <r_i_glide_esite>  (1) 
0

>  <r_i_glide_emodel>  (1) 
-97.0146287314535

>  <r_i_glide_energy>  (1) 
-59.7028045654297

>  <r_i_glide_einternal>  (1) 
0.0125216590240598

>  <i_i_glide_confnum>  (1) 
1

>  <i_i_glide_posenum>  (1) 
1

>  <r_i_glide_eff_state_penalty>  (1) 
-0

>  <r_i_glide_rmsd>  (1) 
0.0744461866068962

>  <s_glide_core_constrain_type>  (1) 
snapped_core_restrain

$$$$
