lig_124
     RDKit          3D

 25 26  0  0  1  0  0  0  0  0999 V2000
   18.8169   -1.0909  -10.1721 C   0  0  0  0  0  0  0  0  0  0  0  0
   19.5455   -2.0385  -10.9118 C   0  0  0  0  0  0  0  0  0  0  0  0
   19.0084   -3.2528  -11.1529 F   0  0  0  0  0  0  0  0  0  0  0  0
   20.8146   -1.7131  -11.4230 C   0  0  0  0  0  0  0  0  0  0  0  0
   21.3607   -0.4368  -11.1833 C   0  0  0  0  0  0  0  0  0  0  0  0
   22.5920   -0.1104  -11.6950 O   0  0  0  0  0  0  0  0  0  0  0  0
   23.7334   -0.3095  -10.9510 C   0  0  0  0  0  0  0  0  0  0  0  0
   23.6965   -0.8073   -9.6241 C   0  0  0  0  0  0  0  0  0  0  0  0
   24.8849   -0.9991   -8.8957 C   0  0  0  0  0  0  0  0  0  0  0  0
   26.1235   -0.7180   -9.4983 C   0  0  0  0  0  0  0  0  0  0  0  0
   27.6344   -0.9557   -8.5725 S   0  0  0  0  0  0  0  0  0  0  0  0
   27.3721   -1.9108   -7.4868 O   0  0  0  0  0  0  0  0  0  0  0  0
   28.7191   -1.2511   -9.5169 O   0  0  0  0  0  0  0  0  0  0  0  0
   27.9681    0.6961   -7.8404 C   0  0  0  0  0  0  0  0  0  0  0  0
   29.2741    0.8898   -7.8809 F   0  0  0  0  0  0  0  0  0  0  0  0
   27.5414    0.7096   -6.5798 F   0  0  0  0  0  0  0  0  0  0  0  0
   27.3486    1.6427   -8.5447 F   0  0  0  0  0  0  0  0  0  0  0  0
   26.1759   -0.1917  -10.8023 C   0  0  0  0  0  0  0  0  0  0  0  0
   24.9862    0.0143  -11.5330 C   0  0  0  0  0  0  0  0  0  0  0  0
   25.0879    0.5704  -12.9422 C   0  0  0  0  0  0  0  0  0  0  0  0
   25.4957    1.8358  -12.9061 F   0  0  0  0  0  0  0  0  0  0  0  0
   25.9493   -0.1458  -13.6626 F   0  0  0  0  0  0  0  0  0  0  0  0
   20.6206    0.5135  -10.4495 C   0  0  0  0  0  0  0  0  0  0  0  0
   19.3436    0.1952   -9.9520 C   0  0  0  0  0  0  0  0  0  0  0  0
   18.4220    1.3926   -9.1102 Cl  0  0  0  0  0  0  0  0  0  0  0  0
  1 24  2  0
  1  2  1  0
  2  3  1  0
  2  4  2  0
  4  5  1  0
  5  6  1  0
  5 23  2  0
  6  7  1  0
  7 19  1  0
  7  8  2  0
  8  9  1  0
  9 10  2  0
 10 11  1  0
 10 18  1  0
 11 12  2  0
 11 13  2  0
 11 14  1  0
 14 15  1  0
 14 16  1  0
 14 17  1  0
 18 19  2  0
 19 20  1  0
 20 21  1  0
 20 22  1  0
 23 24  1  0
 24 25  1  0
M  END
>  <s_m_source_file>  (1) 
ligprep_hif2a.smi

>  <i_m_source_file_index>  (1) 
2

>  <i_lp_mmshare_version>  (1) 
53161

>  <i_f3d_flags>  (1) 
0

>  <s_epik_input>  (1) 
RmMxW2NIXWMoQ2wpW2NIXWMoW2NIXTEpT2MyW2NIXVtjSF1jKFMoPU8pKD1PKUMoRikoRilGKVtjSF1jMltDSF0oRilG

>  <s_epik_cmdline>  (1) 
J2VwaWtfcHl0aG9uJywgJy1waHQnLCAnMC4wJywgJy1waCcsICc3LjQnLCAnLXRuJywgJzgnLCAnLW1hJywgJzUwMCcsICctaW1hZScsICc8aW5maWxlLm1hZT4nLCAnLW9tYWUnLCAnPG91dGZpbGUubWFlPic=

>  <r_lp_tautomer_probability>  (1) 
1

>  <r_epik_Ionization_Penalty>  (1) 
  0.0000

>  <r_epik_Ionization_Penalty_Charging>  (1) 
  0.0000

>  <r_epik_Ionization_Penalty_Neutral>  (1) 
  0.0000

>  <r_epik_State_Penalty>  (1) 
 -0.0000

>  <r_epik_Charging_Adjusted_Penalty>  (1) 
0

>  <i_epik_Tot_Q>  (1) 
0

>  <i_epik_Tot_abs_Q>  (1) 
0

>  <s_lp_Force_Field>  (1) 
S-OPLS

>  <r_lp_Energy>  (1) 
24.9301

>  <b_lp_Chiralities_Consistent>  (1) 
1

>  <s_lp_Variant>  (1) 
lig_124-1

>  <s_i_glide_gridfile>  (1) 
glide-grid_HIF2a-5TBM

>  <i_i_glide_lignum>  (1) 
2

>  <i_i_glide_rotatable_bonds>  (1) 
5

>  <r_i_docking_score>  (1) 
-9.90252543281889

>  <r_i_glide_ligand_efficiency>  (1) 
-0.396101017312756

>  <r_i_glide_ligand_efficiency_sa>  (1) 
-1.15820639950395

>  <r_i_glide_ligand_efficiency_ln>  (1) 
-2.34719528231866

>  <r_i_glide_gscore>  (1) 
-9.90252543281889

>  <r_i_glide_lipo>  (1) 
-4.4412354525818

>  <r_i_glide_hbond>  (1) 
0

>  <r_i_glide_metal>  (1) 
-0

>  <r_i_glide_rewards>  (1) 
-3.17016876936999

>  <r_i_glide_evdw>  (1) 
-47.9958419799805

>  <r_i_glide_ecoul>  (1) 
-3.27362847328186

>  <r_i_glide_erotb>  (1) 
0.599715159124197

>  <r_i_glide_esite>  (1) 
0

>  <r_i_glide_emodel>  (1) 
-80.1474071989423

>  <r_i_glide_energy>  (1) 
-51.2694704532623

>  <r_i_glide_einternal>  (1) 
0.51375412940979

>  <i_i_glide_confnum>  (1) 
5

>  <i_i_glide_posenum>  (1) 
1

>  <r_i_glide_eff_state_penalty>  (1) 
-0

>  <r_i_glide_rmsd>  (1) 
0.0798976919055275

>  <s_glide_core_constrain_type>  (1) 
snapped_core_restrain

$$$$
