lig_251
     RDKit          3D

 26 28  0  0  1  0  0  0  0  0999 V2000
   27.6223    1.6885  -11.1856 O   0  0  0  0  0  0  0  0  0  0  0  0
   27.2576    0.4241  -11.6784 C   0  0  1  0  0  0  0  0  0  0  0  0
   26.1353   -0.1200  -10.8440 C   0  0  0  0  0  0  0  0  0  0  0  0
   24.9170    0.0665  -11.5020 C   0  0  0  0  0  0  0  0  0  0  0  0
   23.6960   -0.3130  -10.9244 C   0  0  0  0  0  0  0  0  0  0  0  0
   22.5570   -0.1287  -11.6687 O   0  0  0  0  0  0  0  0  0  0  0  0
   21.3393   -0.4590  -11.1409 C   0  0  0  0  0  0  0  0  0  0  0  0
   20.8035   -1.7407  -11.3648 C   0  0  0  0  0  0  0  0  0  0  0  0
   19.5376   -2.0647  -10.8402 C   0  0  0  0  0  0  0  0  0  0  0  0
   18.9992   -3.2782  -11.0752 F   0  0  0  0  0  0  0  0  0  0  0  0
   18.8208   -1.1159  -10.0854 C   0  0  0  0  0  0  0  0  0  0  0  0
   19.3472    0.1765   -9.8916 C   0  0  0  0  0  0  0  0  0  0  0  0
   18.6470    1.1042   -9.1982 F   0  0  0  0  0  0  0  0  0  0  0  0
   20.6080    0.5007  -10.4203 C   0  0  0  0  0  0  0  0  0  0  0  0
   23.7316   -0.8754   -9.6205 C   0  0  0  0  0  0  0  0  0  0  0  0
   24.9629   -1.0670   -8.9470 C   0  0  0  0  0  0  0  0  0  0  0  0
   26.1851   -0.6973   -9.5571 C   0  0  0  0  0  0  0  0  0  0  0  0
   27.7403   -1.0152   -8.6981 S   0  0  0  0  0  0  0  0  0  0  0  0
   28.7715   -1.3546   -9.6655 O   0  0  0  0  0  0  0  0  0  0  0  0
   27.4925   -1.9182   -7.5663 O   0  0  0  0  0  0  0  0  0  0  0  0
   28.2265    0.5030   -8.0701 N   0  0  0  0  0  0  0  0  0  0  0  0
   27.3901    1.0736   -7.0417 C   0  0  0  0  0  0  0  0  0  0  0  0
   25.0993    0.6622  -12.8700 C   0  0  0  0  0  0  0  0  0  0  0  0
   26.6266    0.5687  -13.0858 C   0  0  0  0  0  0  0  0  0  0  0  0
   27.1467    1.5639  -13.8007 F   0  0  0  0  0  0  0  0  0  0  0  0
   26.8541   -0.5693  -13.7439 F   0  0  0  0  0  0  0  0  0  0  0  0
  2  1  1  1
  2 24  1  0
  2  3  1  0
  3 17  1  0
  3  4  2  0
  4  5  1  0
  4 23  1  0
  5  6  1  0
  5 15  2  0
  6  7  1  0
  7 14  1  0
  7  8  2  0
  8  9  1  0
  9 10  1  0
  9 11  2  0
 11 12  1  0
 12 13  1  0
 12 14  2  0
 15 16  1  0
 16 17  2  0
 17 18  1  0
 18 19  2  0
 18 20  2  0
 18 21  1  0
 21 22  1  0
 23 24  1  0
 24 25  1  0
 24 26  1  0
M  END
>  <s_m_source_file>  (1) 
ligprep_hif2a.smi

>  <i_m_source_file_index>  (1) 
20

>  <i_lp_mmshare_version>  (1) 
53161

>  <i_f3d_flags>  (1) 
0

>  <s_epik_input>  (1) 
W0NIM11bTkhdUyg9TykoPU8pYzFbY0hdW2NIXWMoYyhjMTIpW0NIMl1DKEYpKEYpW0NASF0yW09IXSlPYzNbY0hdYyhGKVtjSF1jKEYpW2NIXTM=

>  <s_epik_cmdline>  (1) 
J2VwaWtfcHl0aG9uJywgJy1waHQnLCAnMC4wJywgJy1waCcsICc3LjQnLCAnLXRuJywgJzgnLCAnLW1hJywgJzUwMCcsICctaW1hZScsICc8aW5maWxlLm1hZT4nLCAnLW9tYWUnLCAnPG91dGZpbGUubWFlPic=

>  <r_lp_tautomer_probability>  (1) 
1

>  <r_epik_Ionization_Penalty>  (1) 
  0.0016

>  <r_epik_Ionization_Penalty_Charging>  (1) 
  0.0000

>  <r_epik_Ionization_Penalty_Neutral>  (1) 
  0.0016

>  <r_epik_State_Penalty>  (1) 
 -0.0000

>  <r_epik_Charging_Adjusted_Penalty>  (1) 
0

>  <i_epik_Tot_Q>  (1) 
0

>  <i_epik_Tot_abs_Q>  (1) 
0

>  <s_lp_Force_Field>  (1) 
S-OPLS

>  <r_lp_Energy>  (1) 
24.7456

>  <b_lp_Chiralities_Consistent>  (1) 
1

>  <s_lp_Variant>  (1) 
lig_251-1

>  <s_i_glide_gridfile>  (1) 
glide-grid_HIF2a-5TBM

>  <i_i_glide_lignum>  (1) 
20

>  <i_i_glide_rotatable_bonds>  (1) 
5

>  <r_i_docking_score>  (1) 
-10.504727372379

>  <r_i_glide_ligand_efficiency>  (1) 
-0.40402797586073

>  <r_i_glide_ligand_efficiency_sa>  (1) 
-1.19693128871409

>  <r_i_glide_ligand_efficiency_ln>  (1) 
-2.46700075458129

>  <r_i_glide_gscore>  (1) 
-10.504727372379

>  <r_i_glide_lipo>  (1) 
-4.60666400818344

>  <r_i_glide_hbond>  (1) 
-0.32

>  <r_i_glide_metal>  (1) 
-0

>  <r_i_glide_rewards>  (1) 
-3.09490567306238

>  <r_i_glide_evdw>  (1) 
-46.9284896850586

>  <r_i_glide_ecoul>  (1) 
-5.15884351730347

>  <r_i_glide_erotb>  (1) 
0.637093320715297

>  <r_i_glide_esite>  (1) 
0

>  <r_i_glide_emodel>  (1) 
-50.8696491188534

>  <r_i_glide_energy>  (1) 
-52.0873332023621

>  <r_i_glide_einternal>  (1) 
3.58136010169983

>  <i_i_glide_confnum>  (1) 
5

>  <i_i_glide_posenum>  (1) 
17

>  <r_i_glide_eff_state_penalty>  (1) 
-0

>  <r_i_glide_rmsd>  (1) 
0.0909133172690449

>  <s_glide_core_constrain_type>  (1) 
snapped_core_restrain

$$$$
