lig_31
     RDKit          3D

 24 25  0  0  1  0  0  0  0  0999 V2000
   19.5444   -2.0160  -10.9679 C   0  0  0  0  0  0  0  0  0  0  0  0
   18.8520   -1.0296  -10.2386 C   0  0  0  0  0  0  0  0  0  0  0  0
   19.4468    0.2289  -10.0086 C   0  0  0  0  0  0  0  0  0  0  0  0
   18.7451    1.2650   -9.2744 C   0  0  0  0  0  0  0  0  0  0  0  0
   18.1918    2.0886   -8.6808 N   0  0  0  0  0  0  0  0  0  0  0  0
   20.7434    0.4882  -10.4849 C   0  0  0  0  0  0  0  0  0  0  0  0
   21.4294   -0.4907  -11.2294 C   0  0  0  0  0  0  0  0  0  0  0  0
   22.6625   -0.2117  -11.7519 O   0  0  0  0  0  0  0  0  0  0  0  0
   23.7973   -0.3265  -10.9792 C   0  0  0  0  0  0  0  0  0  0  0  0
   23.7843   -0.9004   -9.6865 C   0  0  0  0  0  0  0  0  0  0  0  0
   24.9809   -1.0527   -8.9668 C   0  0  0  0  0  0  0  0  0  0  0  0
   26.2074   -0.6525   -9.5302 C   0  0  0  0  0  0  0  0  0  0  0  0
   27.6991   -0.9407   -8.5611 S   0  0  0  0  0  0  0  0  0  0  0  0
   27.3862   -1.9051   -7.4959 O   0  0  0  0  0  0  0  0  0  0  0  0
   28.7922   -1.2646   -9.4844 O   0  0  0  0  0  0  0  0  0  0  0  0
   28.0709    0.6914   -7.7784 C   0  0  0  0  0  0  0  0  0  0  0  0
   27.5012    1.6833   -8.4610 F   0  0  0  0  0  0  0  0  0  0  0  0
   27.6211    0.6855   -6.5248 F   0  0  0  0  0  0  0  0  0  0  0  0
   26.2388   -0.0229  -10.8031 C   0  0  0  0  0  0  0  0  0  0  0  0
   27.5564    0.4854  -11.4067 C   0  0  0  0  0  0  0  0  0  0  0  0
   25.0226    0.1311  -11.5204 C   0  0  0  0  0  0  0  0  0  0  0  0
   25.0235    0.7723  -12.8287 C   0  0  0  0  0  0  0  0  0  0  0  0
   25.0374    1.2867  -13.8619 N   0  0  0  0  0  0  0  0  0  0  0  0
   20.8280   -1.7412  -11.4755 C   0  0  0  0  0  0  0  0  0  0  0  0
  1 24  2  0
  1  2  1  0
  2  3  2  0
  3  4  1  0
  3  6  1  0
  4  5  3  0
  6  7  2  0
  7  8  1  0
  7 24  1  0
  8  9  1  0
  9 21  1  0
  9 10  2  0
 10 11  1  0
 11 12  2  0
 12 13  1  0
 12 19  1  0
 13 14  2  0
 13 15  2  0
 13 16  1  0
 16 17  1  0
 16 18  1  0
 19 20  1  0
 19 21  2  0
 21 22  1  0
 22 23  3  0
M  END
>  <s_m_source_file>  (1) 
ligprep_hif2a.smi

>  <i_m_source_file_index>  (1) 
28

>  <i_lp_mmshare_version>  (1) 
53161

>  <i_f3d_flags>  (1) 
0

>  <s_epik_input>  (1) 
TiNDYzFbY0hdW2NIXVtjSF1jKFtjSF0xKU9jMltjSF1bY0hdYyhTKD1PKSg9TylbQ0hdKEYpRiljKFtDSDNdKWMyQyNO

>  <s_epik_cmdline>  (1) 
J2VwaWtfcHl0aG9uJywgJy1waHQnLCAnMC4wJywgJy1waCcsICc3LjQnLCAnLXRuJywgJzgnLCAnLW1hJywgJzUwMCcsICctaW1hZScsICc8aW5maWxlLm1hZT4nLCAnLW9tYWUnLCAnPG91dGZpbGUubWFlPic=

>  <r_lp_tautomer_probability>  (1) 
1

>  <r_epik_Ionization_Penalty>  (1) 
  0.0000

>  <r_epik_Ionization_Penalty_Charging>  (1) 
  0.0000

>  <r_epik_Ionization_Penalty_Neutral>  (1) 
  0.0000

>  <r_epik_State_Penalty>  (1) 
 -0.0000

>  <r_epik_Charging_Adjusted_Penalty>  (1) 
0

>  <i_epik_Tot_Q>  (1) 
0

>  <i_epik_Tot_abs_Q>  (1) 
0

>  <s_lp_Force_Field>  (1) 
S-OPLS

>  <r_lp_Energy>  (1) 
31.7682

>  <b_lp_Chiralities_Consistent>  (1) 
1

>  <s_lp_Variant>  (1) 
lig_31-1

>  <s_i_glide_gridfile>  (1) 
glide-grid_HIF2a-5TBM

>  <i_i_glide_lignum>  (1) 
28

>  <i_i_glide_rotatable_bonds>  (1) 
4

>  <r_i_docking_score>  (1) 
-10.0594685137117

>  <r_i_glide_ligand_efficiency>  (1) 
-0.419144521404655

>  <r_i_glide_ligand_efficiency_sa>  (1) 
-1.20902201050436

>  <r_i_glide_ligand_efficiency_ln>  (1) 
-2.40769241426312

>  <r_i_glide_gscore>  (1) 
-10.0594685137117

>  <r_i_glide_lipo>  (1) 
-4.04631181455463

>  <r_i_glide_hbond>  (1) 
0

>  <r_i_glide_metal>  (1) 
-0

>  <r_i_glide_rewards>  (1) 
-3.62045195865977

>  <r_i_glide_evdw>  (1) 
-50.8764572143555

>  <r_i_glide_ecoul>  (1) 
-3.17621374130249

>  <r_i_glide_erotb>  (1) 
0.627550181415824

>  <r_i_glide_esite>  (1) 
0

>  <r_i_glide_emodel>  (1) 
-83.6313526377662

>  <r_i_glide_energy>  (1) 
-54.052670955658

>  <r_i_glide_einternal>  (1) 
1.20274019241333

>  <i_i_glide_confnum>  (1) 
2

>  <i_i_glide_posenum>  (1) 
1

>  <r_i_glide_eff_state_penalty>  (1) 
-0

>  <r_i_glide_rmsd>  (1) 
0.0887992868961443

>  <s_glide_core_constrain_type>  (1) 
snapped_core_restrain

$$$$
