lig_30
     RDKit          3D

 25 26  0  0  1  0  0  0  0  0999 V2000
   18.8287   -1.0326  -10.1942 C   0  0  0  0  0  0  0  0  0  0  0  0
   19.5185   -2.0189  -10.9220 C   0  0  0  0  0  0  0  0  0  0  0  0
   18.9509   -3.2287  -11.1235 F   0  0  0  0  0  0  0  0  0  0  0  0
   20.7970   -1.7483  -11.4517 C   0  0  0  0  0  0  0  0  0  0  0  0
   21.4013   -0.4974  -11.2124 C   0  0  0  0  0  0  0  0  0  0  0  0
   22.6313   -0.2234  -11.7371 O   0  0  0  0  0  0  0  0  0  0  0  0
   23.7620   -0.3413  -10.9621 C   0  0  0  0  0  0  0  0  0  0  0  0
   23.7547   -0.9083   -9.6625 C   0  0  0  0  0  0  0  0  0  0  0  0
   24.9618   -1.0677   -8.9581 C   0  0  0  0  0  0  0  0  0  0  0  0
   26.1874   -0.6810   -9.5404 C   0  0  0  0  0  0  0  0  0  0  0  0
   27.6950   -0.9275   -8.5829 S   0  0  0  0  0  0  0  0  0  0  0  0
   27.4064   -1.8486   -7.4761 O   0  0  0  0  0  0  0  0  0  0  0  0
   28.7976   -1.2582   -9.4886 O   0  0  0  0  0  0  0  0  0  0  0  0
   28.0242    0.7349   -7.8758 C   0  0  0  0  0  0  0  0  0  0  0  0
   27.5769    0.7951   -6.6224 F   0  0  0  0  0  0  0  0  0  0  0  0
   27.4596    1.6887   -8.6170 F   0  0  0  0  0  0  0  0  0  0  0  0
   26.2027   -0.0588  -10.8114 C   0  0  0  0  0  0  0  0  0  0  0  0
   27.6721    0.5096  -11.5397 Cl  0  0  0  0  0  0  0  0  0  0  0  0
   24.9862    0.0960  -11.5152 C   0  0  0  0  0  0  0  0  0  0  0  0
   25.0167    0.7160  -12.8314 C   0  0  0  0  0  0  0  0  0  0  0  0
   25.0473    1.2055  -13.8751 N   0  0  0  0  0  0  0  0  0  0  0  0
   20.7188    0.4888  -10.4727 C   0  0  0  0  0  0  0  0  0  0  0  0
   19.4231    0.2304   -9.9870 C   0  0  0  0  0  0  0  0  0  0  0  0
   18.7140    1.2676   -9.2617 C   0  0  0  0  0  0  0  0  0  0  0  0
   18.1522    2.0886   -8.6752 N   0  0  0  0  0  0  0  0  0  0  0  0
  1 23  2  0
  1  2  1  0
  2  3  1  0
  2  4  2  0
  4  5  1  0
  5  6  1  0
  5 22  2  0
  6  7  1  0
  7 19  1  0
  7  8  2  0
  8  9  1  0
  9 10  2  0
 10 11  1  0
 10 17  1  0
 11 12  2  0
 11 13  2  0
 11 14  1  0
 14 15  1  0
 14 16  1  0
 17 18  1  0
 17 19  2  0
 19 20  1  0
 20 21  3  0
 22 23  1  0
 23 24  1  0
 24 25  3  0
M  END
>  <s_m_source_file>  (1) 
ligprep_hif2a.smi

>  <i_m_source_file_index>  (1) 
27

>  <i_lp_mmshare_version>  (1) 
53161

>  <i_f3d_flags>  (1) 
0

>  <s_epik_input>  (1) 
RmMxW2NIXWMoQyNOKVtjSF1jKFtjSF0xKU9jMltjSF1bY0hdYyhTKD1PKSg9TylbQ0hdKEYpRiljKENsKWMyQyNO

>  <s_epik_cmdline>  (1) 
J2VwaWtfcHl0aG9uJywgJy1waHQnLCAnMC4wJywgJy1waCcsICc3LjQnLCAnLXRuJywgJzgnLCAnLW1hJywgJzUwMCcsICctaW1hZScsICc8aW5maWxlLm1hZT4nLCAnLW9tYWUnLCAnPG91dGZpbGUubWFlPic=

>  <r_lp_tautomer_probability>  (1) 
1

>  <r_epik_Ionization_Penalty>  (1) 
  0.0000

>  <r_epik_Ionization_Penalty_Charging>  (1) 
  0.0000

>  <r_epik_Ionization_Penalty_Neutral>  (1) 
  0.0000

>  <r_epik_State_Penalty>  (1) 
 -0.0000

>  <r_epik_Charging_Adjusted_Penalty>  (1) 
0

>  <i_epik_Tot_Q>  (1) 
0

>  <i_epik_Tot_abs_Q>  (1) 
0

>  <s_lp_Force_Field>  (1) 
S-OPLS

>  <r_lp_Energy>  (1) 
27.9574

>  <b_lp_Chiralities_Consistent>  (1) 
1

>  <s_lp_Variant>  (1) 
lig_30-1

>  <s_i_glide_gridfile>  (1) 
glide-grid_HIF2a-5TBM

>  <i_i_glide_lignum>  (1) 
27

>  <i_i_glide_rotatable_bonds>  (1) 
4

>  <r_i_docking_score>  (1) 
-9.98440103542361

>  <r_i_glide_ligand_efficiency>  (1) 
-0.399376041416945

>  <r_i_glide_ligand_efficiency_sa>  (1) 
-1.1677826280674

>  <r_i_glide_ligand_efficiency_ln>  (1) 
-2.3666022537498

>  <r_i_glide_gscore>  (1) 
-9.98440103542361

>  <r_i_glide_lipo>  (1) 
-3.98662815681076

>  <r_i_glide_hbond>  (1) 
0

>  <r_i_glide_metal>  (1) 
-0

>  <r_i_glide_rewards>  (1) 
-3.42355086971324

>  <r_i_glide_evdw>  (1) 
-52.7903518676758

>  <r_i_glide_ecoul>  (1) 
-3.03551125526428

>  <r_i_glide_erotb>  (1) 
0.520622272773826

>  <r_i_glide_esite>  (1) 
0

>  <r_i_glide_emodel>  (1) 
-86.5435535953893

>  <r_i_glide_energy>  (1) 
-55.8258631229401

>  <r_i_glide_einternal>  (1) 
1.64607119560242

>  <i_i_glide_confnum>  (1) 
2

>  <i_i_glide_posenum>  (1) 
1

>  <r_i_glide_eff_state_penalty>  (1) 
-0

>  <r_i_glide_rmsd>  (1) 
0.0744840987673936

>  <s_glide_core_constrain_type>  (1) 
snapped_core_restrain

$$$$
