lig_54
     RDKit          3D

 24 25  0  0  1  0  0  0  0  0999 V2000
   28.0209    1.4222  -10.9684 O   0  0  0  0  0  0  0  0  0  0  0  0
   27.4781    0.2919  -11.6009 C   0  0  0  0  0  0  0  0  0  0  0  0
   26.1818   -0.1442  -10.9286 C   0  0  0  0  0  0  0  0  0  0  0  0
   24.9459   -0.0012  -11.6189 C   0  0  0  0  0  0  0  0  0  0  0  0
   24.9061    0.4856  -13.0646 C   0  0  0  0  0  0  0  0  0  0  0  0
   25.6179   -0.3034  -13.8723 F   0  0  0  0  0  0  0  0  0  0  0  0
   25.3381    1.7404  -13.1534 F   0  0  0  0  0  0  0  0  0  0  0  0
   23.7252   -0.3115  -10.9728 C   0  0  0  0  0  0  0  0  0  0  0  0
   22.5613   -0.1343  -11.6840 O   0  0  0  0  0  0  0  0  0  0  0  0
   21.3493   -0.4609  -11.1425 C   0  0  0  0  0  0  0  0  0  0  0  0
   20.8111   -1.7435  -11.3570 C   0  0  0  0  0  0  0  0  0  0  0  0
   19.5448   -2.0612  -10.8390 C   0  0  0  0  0  0  0  0  0  0  0  0
   19.0025   -3.2739  -11.0761 F   0  0  0  0  0  0  0  0  0  0  0  0
   18.8229   -1.1044  -10.1026 C   0  0  0  0  0  0  0  0  0  0  0  0
   19.3435    0.1882   -9.9090 C   0  0  0  0  0  0  0  0  0  0  0  0
   18.4215    1.3905   -9.0758 Cl  0  0  0  0  0  0  0  0  0  0  0  0
   20.6129    0.5049  -10.4242 C   0  0  0  0  0  0  0  0  0  0  0  0
   23.7348   -0.7540   -9.6309 C   0  0  0  0  0  0  0  0  0  0  0  0
   24.9520   -0.9209   -8.9536 C   0  0  0  0  0  0  0  0  0  0  0  0
   26.1737   -0.6502   -9.5975 C   0  0  0  0  0  0  0  0  0  0  0  0
   27.6618   -0.9321   -8.6112 S   0  0  0  0  0  0  0  0  0  0  0  0
   27.3323   -1.8968   -7.5516 O   0  0  0  0  0  0  0  0  0  0  0  0
   28.7925   -1.2502   -9.4867 O   0  0  0  0  0  0  0  0  0  0  0  0
   28.0108    0.6791   -7.8034 C   0  0  0  0  0  0  0  0  0  0  0  0
  1  2  1  0
  2  3  1  0
  3 20  2  0
  3  4  1  0
  4  5  1  0
  4  8  2  0
  5  6  1  0
  5  7  1  0
  8  9  1  0
  8 18  1  0
  9 10  1  0
 10 17  1  0
 10 11  2  0
 11 12  1  0
 12 13  1  0
 12 14  2  0
 14 15  1  0
 15 16  1  0
 15 17  2  0
 18 19  2  0
 19 20  1  0
 20 21  1  0
 21 22  2  0
 21 23  2  0
 21 24  1  0
M  END
>  <s_m_source_file>  (1) 
ligprep_hif2a.smi

>  <i_m_source_file_index>  (1) 
36

>  <i_lp_mmshare_version>  (1) 
53161

>  <i_f3d_flags>  (1) 
0

>  <s_epik_input>  (1) 
Tz1TKD1PKShbQ0gzXSljMVtjSF1bY0hdYyhjKFtDSF0oRilGKWMxW0NIMl1bT0hdKU9jMltjSF1jKEYpW2NIXWMoQ2wpW2NIXTI=

>  <s_epik_cmdline>  (1) 
J2VwaWtfcHl0aG9uJywgJy1waHQnLCAnMC4wJywgJy1waCcsICc3LjQnLCAnLXRuJywgJzgnLCAnLW1hJywgJzUwMCcsICctaW1hZScsICc8aW5maWxlLm1hZT4nLCAnLW9tYWUnLCAnPG91dGZpbGUubWFlPic=

>  <r_lp_tautomer_probability>  (1) 
1

>  <r_epik_Ionization_Penalty>  (1) 
  0.0000

>  <r_epik_Ionization_Penalty_Charging>  (1) 
  0.0000

>  <r_epik_Ionization_Penalty_Neutral>  (1) 
  0.0000

>  <r_epik_State_Penalty>  (1) 
 -0.0000

>  <r_epik_Charging_Adjusted_Penalty>  (1) 
0

>  <i_epik_Tot_Q>  (1) 
0

>  <i_epik_Tot_abs_Q>  (1) 
0

>  <s_lp_Force_Field>  (1) 
S-OPLS

>  <r_lp_Energy>  (1) 
23.898

>  <b_lp_Chiralities_Consistent>  (1) 
1

>  <s_lp_Variant>  (1) 
lig_54-1

>  <s_i_glide_gridfile>  (1) 
glide-grid_HIF2a-5TBM

>  <i_i_glide_lignum>  (1) 
36

>  <i_i_glide_rotatable_bonds>  (1) 
6

>  <r_i_docking_score>  (1) 
-10.3813144196857

>  <r_i_glide_ligand_efficiency>  (1) 
-0.432554767486905

>  <r_i_glide_ligand_efficiency_sa>  (1) 
-1.24770385376306

>  <r_i_glide_ligand_efficiency_ln>  (1) 
-2.48472490810899

>  <r_i_glide_gscore>  (1) 
-10.3813144196857

>  <r_i_glide_lipo>  (1) 
-4.64780174229564

>  <r_i_glide_hbond>  (1) 
0

>  <r_i_glide_metal>  (1) 
-0

>  <r_i_glide_rewards>  (1) 
-2.96880495931459

>  <r_i_glide_evdw>  (1) 
-49.8280601501465

>  <r_i_glide_ecoul>  (1) 
-6.28321695327759

>  <r_i_glide_erotb>  (1) 
0.669177832423469

>  <r_i_glide_esite>  (1) 
0

>  <r_i_glide_emodel>  (1) 
-89.9030774145418

>  <r_i_glide_energy>  (1) 
-56.1112771034241

>  <r_i_glide_einternal>  (1) 
1.48650968074799

>  <i_i_glide_confnum>  (1) 
4

>  <i_i_glide_posenum>  (1) 
18

>  <r_i_glide_eff_state_penalty>  (1) 
-0

>  <r_i_glide_rmsd>  (1) 
0.0862571022311377

>  <s_glide_core_constrain_type>  (1) 
snapped_core_restrain

$$$$
