lig_224
     RDKit          3D

 26 28  0  0  1  0  0  0  0  0999 V2000
   27.6211    1.6885  -11.2101 O   0  0  0  0  0  0  0  0  0  0  0  0
   27.2399    0.4153  -11.6857 C   0  0  1  0  0  0  0  0  0  0  0  0
   26.0906   -0.1064  -10.8580 C   0  0  0  0  0  0  0  0  0  0  0  0
   24.8874    0.0563  -11.5382 C   0  0  0  0  0  0  0  0  0  0  0  0
   23.6560   -0.3071  -10.9706 C   0  0  0  0  0  0  0  0  0  0  0  0
   22.5298   -0.1185  -11.7286 O   0  0  0  0  0  0  0  0  0  0  0  0
   21.3012   -0.4209  -11.2148 C   0  0  0  0  0  0  0  0  0  0  0  0
   20.6945   -1.6400  -11.1323 C   0  0  0  0  0  0  0  0  0  0  0  0
   19.4514   -1.4217  -10.5826 N   0  0  0  0  0  0  0  0  0  0  0  0
   18.4187   -2.3875  -10.3017 C   0  0  0  0  0  0  0  0  0  0  0  0
   19.2333   -0.1175  -10.3052 N   0  0  0  0  0  0  0  0  0  0  0  0
   20.3462    0.4883  -10.6797 C   0  0  0  0  0  0  0  0  0  0  0  0
   23.6568   -0.8167   -9.6459 C   0  0  0  0  0  0  0  0  0  0  0  0
   24.8732   -0.9870   -8.9498 C   0  0  0  0  0  0  0  0  0  0  0  0
   26.1071   -0.6636   -9.5609 C   0  0  0  0  0  0  0  0  0  0  0  0
   27.6205   -0.9331   -8.6365 S   0  0  0  0  0  0  0  0  0  0  0  0
   27.3261   -1.9270   -7.5946 O   0  0  0  0  0  0  0  0  0  0  0  0
   28.7149   -1.2172   -9.5700 O   0  0  0  0  0  0  0  0  0  0  0  0
   27.9866    0.6813   -7.8241 C   0  0  0  0  0  0  0  0  0  0  0  0
   27.6205    0.5946   -6.5429 F   0  0  0  0  0  0  0  0  0  0  0  0
   29.2872    0.8887   -7.9167 F   0  0  0  0  0  0  0  0  0  0  0  0
   27.3105    1.6643   -8.4121 F   0  0  0  0  0  0  0  0  0  0  0  0
   25.0933    0.6442  -12.9091 C   0  0  0  0  0  0  0  0  0  0  0  0
   26.6193    0.5503  -13.1019 C   0  0  0  0  0  0  0  0  0  0  0  0
   27.1207    1.5595  -13.8150 F   0  0  0  0  0  0  0  0  0  0  0  0
   26.8689   -0.5841  -13.7566 F   0  0  0  0  0  0  0  0  0  0  0  0
  2  1  1  1
  2 24  1  0
  2  3  1  0
  3 15  1  0
  3  4  2  0
  4  5  1  0
  4 23  1  0
  5  6  1  0
  5 13  2  0
  6  7  1  0
  7 12  1  0
  7  8  2  0
  8  9  1  0
  9 10  1  0
  9 11  1  0
 11 12  2  0
 13 14  1  0
 14 15  2  0
 15 16  1  0
 16 17  2  0
 16 18  2  0
 16 19  1  0
 19 20  1  0
 19 21  1  0
 19 22  1  0
 23 24  1  0
 24 25  1  0
 24 26  1  0
M  END
>  <s_m_source_file>  (1) 
ligprep_hif2a.smi

>  <i_m_source_file_index>  (1) 
12

>  <i_lp_mmshare_version>  (1) 
53161

>  <i_f3d_flags>  (1) 
0

>  <s_epik_input>  (1) 
RkMoRikoRilTKD1PKSg9TyljMVtjSF1bY0hdYyhjKGMxMilbQ0gyXUMoRikoRilbQ0BIXTJbT0hdKU9jM1tjSF1uKFtDSDNdKW5bY0hdMw==

>  <s_epik_cmdline>  (1) 
J2VwaWtfcHl0aG9uJywgJy1waHQnLCAnMC4wJywgJy1waCcsICc3LjQnLCAnLXRuJywgJzgnLCAnLW1hJywgJzUwMCcsICctaW1hZScsICc8aW5maWxlLm1hZT4nLCAnLW9tYWUnLCAnPG91dGZpbGUubWFlPic=

>  <r_lp_tautomer_probability>  (1) 
1

>  <r_epik_Ionization_Penalty>  (1) 
  0.0012

>  <r_epik_Ionization_Penalty_Charging>  (1) 
  0.0000

>  <r_epik_Ionization_Penalty_Neutral>  (1) 
  0.0012

>  <r_epik_State_Penalty>  (1) 
 -0.0000

>  <r_epik_Charging_Adjusted_Penalty>  (1) 
0

>  <i_epik_Tot_Q>  (1) 
0

>  <i_epik_Tot_abs_Q>  (1) 
0

>  <s_lp_Force_Field>  (1) 
S-OPLS

>  <r_lp_Energy>  (1) 
27.0687

>  <b_lp_Chiralities_Consistent>  (1) 
1

>  <s_lp_Variant>  (1) 
lig_224-1

>  <s_i_glide_gridfile>  (1) 
glide-grid_HIF2a-5TBM

>  <i_i_glide_lignum>  (1) 
12

>  <i_i_glide_rotatable_bonds>  (1) 
5

>  <r_i_docking_score>  (1) 
-9.71413437351597

>  <r_i_glide_ligand_efficiency>  (1) 
-0.373620552827537

>  <r_i_glide_ligand_efficiency_sa>  (1) 
-1.10684941762569

>  <r_i_glide_ligand_efficiency_ln>  (1) 
-2.28133258294553

>  <r_i_glide_gscore>  (1) 
-9.71413437351597

>  <r_i_glide_lipo>  (1) 
-4.14103120694716

>  <r_i_glide_hbond>  (1) 
-0.32

>  <r_i_glide_metal>  (1) 
-0

>  <r_i_glide_rewards>  (1) 
-2.5737315386456

>  <r_i_glide_evdw>  (1) 
-48.1216354370117

>  <r_i_glide_ecoul>  (1) 
-5.93656969070435

>  <r_i_glide_erotb>  (1) 
0.617195597533033

>  <r_i_glide_esite>  (1) 
0

>  <r_i_glide_emodel>  (1) 
-328.527569133169

>  <r_i_glide_energy>  (1) 
-54.0582051277161

>  <r_i_glide_einternal>  (1) 
0.357719838619232

>  <i_i_glide_confnum>  (1) 
323

>  <i_i_glide_posenum>  (1) 
103

>  <r_i_glide_eff_state_penalty>  (1) 
-0

>  <r_i_glide_rmsd>  (1) 
0.0957558327880349

>  <s_glide_core_constrain_type>  (1) 
snapped_core_restrain

$$$$
