lig_1
     RDKit          3D

 25 27  0  0  1  0  0  0  0  0999 V2000
   27.6211    1.6883  -11.2696 O   0  0  0  0  0  0  0  0  0  0  0  0
   27.2345    0.4126  -11.7084 C   0  0  1  0  0  0  0  0  0  0  0  0
   26.1025   -0.0992  -10.8571 C   0  0  0  0  0  0  0  0  0  0  0  0
   24.8944    0.0553  -11.5264 C   0  0  0  0  0  0  0  0  0  0  0  0
   23.6711   -0.3099  -10.9455 C   0  0  0  0  0  0  0  0  0  0  0  0
   22.5362   -0.1393  -11.6965 O   0  0  0  0  0  0  0  0  0  0  0  0
   21.3205   -0.4395  -11.1553 C   0  0  0  0  0  0  0  0  0  0  0  0
   20.7634   -1.7162  -11.3617 C   0  0  0  0  0  0  0  0  0  0  0  0
   19.5011   -2.0183  -10.8213 C   0  0  0  0  0  0  0  0  0  0  0  0
   18.9449   -3.2288  -11.0322 F   0  0  0  0  0  0  0  0  0  0  0  0
   18.8034   -1.0468  -10.0826 C   0  0  0  0  0  0  0  0  0  0  0  0
   19.3468    0.2383   -9.9045 C   0  0  0  0  0  0  0  0  0  0  0  0
   18.4454    1.4580   -9.0758 Cl  0  0  0  0  0  0  0  0  0  0  0  0
   20.6157    0.5373  -10.4246 C   0  0  0  0  0  0  0  0  0  0  0  0
   23.6902   -0.8084   -9.6167 C   0  0  0  0  0  0  0  0  0  0  0  0
   24.9127   -0.9567   -8.9244 C   0  0  0  0  0  0  0  0  0  0  0  0
   26.1383   -0.6301   -9.5470 C   0  0  0  0  0  0  0  0  0  0  0  0
   27.6609   -0.8848   -8.6224 S   0  0  0  0  0  0  0  0  0  0  0  0
   27.3915   -1.8932   -7.5869 O   0  0  0  0  0  0  0  0  0  0  0  0
   28.7554   -1.1464   -9.5603 O   0  0  0  0  0  0  0  0  0  0  0  0
   28.0142    0.7154   -7.7807 C   0  0  0  0  0  0  0  0  0  0  0  0
   27.3404    0.7739   -6.6335 F   0  0  0  0  0  0  0  0  0  0  0  0
   27.6997    1.7495   -8.5525 F   0  0  0  0  0  0  0  0  0  0  0  0
   25.0810    0.6397  -12.9005 C   0  0  0  0  0  0  0  0  0  0  0  0
   26.6053    0.5640  -13.1121 C   0  0  0  0  0  0  0  0  0  0  0  0
  2  1  1  1
  2 25  1  0
  2  3  1  0
  3 17  1  0
  3  4  2  0
  4  5  1  0
  4 24  1  0
  5  6  1  0
  5 15  2  0
  6  7  1  0
  7 14  1  0
  7  8  2  0
  8  9  1  0
  9 10  1  0
  9 11  2  0
 11 12  1  0
 12 13  1  0
 12 14  2  0
 15 16  1  0
 16 17  2  0
 17 18  1  0
 18 19  2  0
 18 20  2  0
 18 21  1  0
 21 22  1  0
 21 23  1  0
 24 25  1  0
M  END
>  <s_m_source_file>  (1) 
ligprep_hif2a.smi

>  <i_m_source_file_index>  (1) 
1

>  <i_lp_mmshare_version>  (1) 
53161

>  <i_f3d_flags>  (1) 
0

>  <s_epik_input>  (1) 
RltDSF0oRilTKD1PKSg9TyljMVtjSF1bY0hdYyhjKGMxMilbQ0gyXVtDSDJdW0NASF0yW09IXSlPYzNbY0hdYyhGKVtjSF1jKENsKVtjSF0z

>  <s_epik_cmdline>  (1) 
J2VwaWtfcHl0aG9uJywgJy1waHQnLCAnMC4wJywgJy1waCcsICc3LjQnLCAnLXRuJywgJzgnLCAnLW1hJywgJzUwMCcsICctaW1hZScsICc8aW5maWxlLm1hZT4nLCAnLW9tYWUnLCAnPG91dGZpbGUubWFlPic=

>  <r_lp_tautomer_probability>  (1) 
1

>  <r_epik_Ionization_Penalty>  (1) 
  0.0000

>  <r_epik_Ionization_Penalty_Charging>  (1) 
  0.0000

>  <r_epik_Ionization_Penalty_Neutral>  (1) 
  0.0000

>  <r_epik_State_Penalty>  (1) 
 -0.0000

>  <r_epik_Charging_Adjusted_Penalty>  (1) 
0

>  <i_epik_Tot_Q>  (1) 
0

>  <i_epik_Tot_abs_Q>  (1) 
0

>  <s_lp_Force_Field>  (1) 
S-OPLS

>  <r_lp_Energy>  (1) 
29.8405

>  <b_lp_Chiralities_Consistent>  (1) 
1

>  <s_lp_Variant>  (1) 
lig_1-1

>  <s_i_glide_gridfile>  (1) 
glide-grid_HIF2a-5TBM

>  <i_i_glide_lignum>  (1) 
1

>  <i_i_glide_rotatable_bonds>  (1) 
5

>  <r_i_docking_score>  (1) 
-10.8846072261852

>  <r_i_glide_ligand_efficiency>  (1) 
-0.435384289047407

>  <r_i_glide_ligand_efficiency_sa>  (1) 
-1.27307138274786

>  <r_i_glide_ligand_efficiency_ln>  (1) 
-2.57997809796291

>  <r_i_glide_gscore>  (1) 
-10.8846072261852

>  <r_i_glide_lipo>  (1) 
-5.08088570963049

>  <r_i_glide_hbond>  (1) 
0

>  <r_i_glide_metal>  (1) 
-0

>  <r_i_glide_rewards>  (1) 
-2.93523301110174

>  <r_i_glide_evdw>  (1) 
-53.7916793823242

>  <r_i_glide_ecoul>  (1) 
-5.41205501556396

>  <r_i_glide_erotb>  (1) 
0.632903715997856

>  <r_i_glide_esite>  (1) 
0

>  <r_i_glide_emodel>  (1) 
-96.3380203305745

>  <r_i_glide_energy>  (1) 
-59.2037343978882

>  <r_i_glide_einternal>  (1) 
1.79343247413635

>  <i_i_glide_confnum>  (1) 
6

>  <i_i_glide_posenum>  (1) 
9

>  <r_i_glide_eff_state_penalty>  (1) 
-0

>  <r_i_glide_rmsd>  (1) 
0.0950009351342373

>  <s_glide_core_constrain_type>  (1) 
snapped_core_restrain

$$$$
