lig_256
     RDKit          3D

 25 27  0  0  1  0  0  0  0  0999 V2000
   27.6211    1.6957  -11.1500 O   0  0  0  0  0  0  0  0  0  0  0  0
   27.2774    0.4225  -11.6472 C   0  0  1  0  0  0  0  0  0  0  0  0
   26.1370   -0.1073  -10.8241 C   0  0  0  0  0  0  0  0  0  0  0  0
   24.9323    0.0626  -11.5015 C   0  0  0  0  0  0  0  0  0  0  0  0
   23.7055   -0.3104  -10.9343 C   0  0  0  0  0  0  0  0  0  0  0  0
   22.5769   -0.1672  -11.7029 O   0  0  0  0  0  0  0  0  0  0  0  0
   21.3551   -0.4773  -11.1773 C   0  0  0  0  0  0  0  0  0  0  0  0
   20.8002   -1.7521  -11.3936 C   0  0  0  0  0  0  0  0  0  0  0  0
   19.5339   -2.0580  -10.8626 C   0  0  0  0  0  0  0  0  0  0  0  0
   18.9882   -3.2744  -11.0758 F   0  0  0  0  0  0  0  0  0  0  0  0
   18.8239   -1.0924  -10.1253 C   0  0  0  0  0  0  0  0  0  0  0  0
   19.3730    0.1867   -9.9209 C   0  0  0  0  0  0  0  0  0  0  0  0
   18.6829    1.1273   -9.2322 F   0  0  0  0  0  0  0  0  0  0  0  0
   20.6423    0.4884  -10.4420 C   0  0  0  0  0  0  0  0  0  0  0  0
   23.7201   -0.8318   -9.6123 C   0  0  0  0  0  0  0  0  0  0  0  0
   24.9397   -0.9911   -8.9144 C   0  0  0  0  0  0  0  0  0  0  0  0
   26.1668   -0.6472   -9.5203 C   0  0  0  0  0  0  0  0  0  0  0  0
   27.6944   -0.8994   -8.6042 S   0  0  0  0  0  0  0  0  0  0  0  0
   28.7859   -1.2054   -9.5331 O   0  0  0  0  0  0  0  0  0  0  0  0
   27.4392   -1.8071   -7.4783 O   0  0  0  0  0  0  0  0  0  0  0  0
   27.9945    0.6593   -7.9571 N   0  0  0  0  0  0  0  0  0  0  0  0
   25.1374    0.6636  -12.8673 C   0  0  0  0  0  0  0  0  0  0  0  0
   26.6614    0.5607  -13.0642 C   0  0  0  0  0  0  0  0  0  0  0  0
   27.1783    1.5567  -13.7854 F   0  0  0  0  0  0  0  0  0  0  0  0
   26.8939   -0.5785  -13.7196 F   0  0  0  0  0  0  0  0  0  0  0  0
  2  1  1  1
  2 23  1  0
  2  3  1  0
  3 17  1  0
  3  4  2  0
  4  5  1  0
  4 22  1  0
  5  6  1  0
  5 15  2  0
  6  7  1  0
  7 14  1  0
  7  8  2  0
  8  9  1  0
  9 10  1  0
  9 11  2  0
 11 12  1  0
 12 13  1  0
 12 14  2  0
 15 16  1  0
 16 17  2  0
 17 18  1  0
 18 19  2  0
 18 20  2  0
 18 21  1  0
 22 23  1  0
 23 24  1  0
 23 25  1  0
M  END
>  <s_m_source_file>  (1) 
ligprep_hif2a.smi

>  <i_m_source_file_index>  (1) 
23

>  <i_lp_mmshare_version>  (1) 
53161

>  <i_f3d_flags>  (1) 
0

>  <s_epik_input>  (1) 
W09IXVtDQEBIXTFDKEYpKEYpW0NIMl1jKGMxMiljKFtjSF1bY0hdYzJTKD1PKSg9TylbTkgyXSlPYzNbY0hdYyhGKVtjSF1jKEYpW2NIXTM=

>  <s_epik_cmdline>  (1) 
J2VwaWtfcHl0aG9uJywgJy1waHQnLCAnMC4wJywgJy1waCcsICc3LjQnLCAnLXRuJywgJzgnLCAnLW1hJywgJzUwMCcsICctaW1hZScsICc8aW5maWxlLm1hZT4nLCAnLW9tYWUnLCAnPG91dGZpbGUubWFlPic=

>  <r_lp_tautomer_probability>  (1) 
1

>  <r_epik_Ionization_Penalty>  (1) 
  0.0055

>  <r_epik_Ionization_Penalty_Charging>  (1) 
  0.0000

>  <r_epik_Ionization_Penalty_Neutral>  (1) 
  0.0055

>  <r_epik_State_Penalty>  (1) 
 -0.0000

>  <r_epik_Charging_Adjusted_Penalty>  (1) 
0

>  <i_epik_Tot_Q>  (1) 
0

>  <i_epik_Tot_abs_Q>  (1) 
0

>  <s_lp_Force_Field>  (1) 
S-OPLS

>  <r_lp_Energy>  (1) 
21.8453

>  <b_lp_Chiralities_Consistent>  (1) 
1

>  <s_lp_Variant>  (1) 
lig_256-1

>  <s_i_glide_gridfile>  (1) 
glide-grid_HIF2a-5TBM

>  <i_i_glide_lignum>  (1) 
23

>  <i_i_glide_rotatable_bonds>  (1) 
4

>  <r_i_docking_score>  (1) 
-11.0490813506364

>  <r_i_glide_ligand_efficiency>  (1) 
-0.441963254025456

>  <r_i_glide_ligand_efficiency_sa>  (1) 
-1.29230839302212

>  <r_i_glide_ligand_efficiency_ln>  (1) 
-2.61896339434962

>  <r_i_glide_gscore>  (1) 
-11.0490813506364

>  <r_i_glide_lipo>  (1) 
-4.42243386034582

>  <r_i_glide_hbond>  (1) 
-0.32

>  <r_i_glide_metal>  (1) 
-0

>  <r_i_glide_rewards>  (1) 
-3.36067123453103

>  <r_i_glide_evdw>  (1) 
-50.5244750976562

>  <r_i_glide_ecoul>  (1) 
-6.42605829238892

>  <r_i_glide_erotb>  (1) 
0.544156242981608

>  <r_i_glide_esite>  (1) 
0

>  <r_i_glide_emodel>  (1) 
-93.3723681294309

>  <r_i_glide_energy>  (1) 
-56.9505333900452

>  <r_i_glide_einternal>  (1) 
0.00632777949795127

>  <i_i_glide_confnum>  (1) 
3

>  <i_i_glide_posenum>  (1) 
2

>  <r_i_glide_eff_state_penalty>  (1) 
-0

>  <r_i_glide_rmsd>  (1) 
0.0686592869035339

>  <s_glide_core_constrain_type>  (1) 
snapped_core_restrain

$$$$
