lig_234
     RDKit          3D

 26 28  0  0  1  0  0  0  0  0999 V2000
   27.6211    1.6885  -11.1672 O   0  0  0  0  0  0  0  0  0  0  0  0
   27.3043    0.4046  -11.6444 C   0  0  1  0  0  0  0  0  0  0  0  0
   26.1741   -0.1416  -10.8165 C   0  0  0  0  0  0  0  0  0  0  0  0
   24.9731    0.0399  -11.4877 C   0  0  0  0  0  0  0  0  0  0  0  0
   23.7511   -0.3115  -10.9108 C   0  0  0  0  0  0  0  0  0  0  0  0
   22.6350   -0.0820  -11.6644 O   0  0  0  0  0  0  0  0  0  0  0  0
   21.4213   -0.3904  -11.1432 C   0  0  0  0  0  0  0  0  0  0  0  0
   20.8764   -1.6549  -11.3680 C   0  0  0  0  0  0  0  0  0  0  0  0
   19.5975   -1.9291  -10.8783 C   0  0  0  0  0  0  0  0  0  0  0  0
   18.8211   -3.2692  -11.4758 Cl  0  0  0  0  0  0  0  0  0  0  0  0
   18.8743   -0.9929  -10.1288 C   0  0  0  0  0  0  0  0  0  0  0  0
   19.4251    0.2793   -9.9225 C   0  0  0  0  0  0  0  0  0  0  0  0
   18.6633    1.2895   -9.2316 C   0  0  0  0  0  0  0  0  0  0  0  0
   18.0537    2.0922   -8.6758 N   0  0  0  0  0  0  0  0  0  0  0  0
   20.6972    0.5809  -10.4332 C   0  0  0  0  0  0  0  0  0  0  0  0
   23.7535   -0.8458   -9.5960 C   0  0  0  0  0  0  0  0  0  0  0  0
   24.9719   -1.0310   -8.9047 C   0  0  0  0  0  0  0  0  0  0  0  0
   26.1987   -0.6963   -9.5174 C   0  0  0  0  0  0  0  0  0  0  0  0
   27.7154   -0.9027   -8.5859 S   0  0  0  0  0  0  0  0  0  0  0  0
   27.4723   -1.8418   -7.4823 O   0  0  0  0  0  0  0  0  0  0  0  0
   28.8046   -1.1981   -9.5194 O   0  0  0  0  0  0  0  0  0  0  0  0
   28.0213    0.7542   -7.8669 C   0  0  0  0  0  0  0  0  0  0  0  0
   25.1627    0.6446  -12.8534 C   0  0  0  0  0  0  0  0  0  0  0  0
   26.6826    0.5427  -13.0588 C   0  0  0  0  0  0  0  0  0  0  0  0
   27.1899    1.5486  -13.7754 F   0  0  0  0  0  0  0  0  0  0  0  0
   26.9070   -0.5932  -13.7231 F   0  0  0  0  0  0  0  0  0  0  0  0
  2  1  1  1
  2 24  1  0
  2  3  1  0
  3 18  1  0
  3  4  2  0
  4  5  1  0
  4 23  1  0
  5  6  1  0
  5 16  2  0
  6  7  1  0
  7 15  1  0
  7  8  2  0
  8  9  1  0
  9 10  1  0
  9 11  2  0
 11 12  1  0
 12 13  1  0
 12 15  2  0
 13 14  3  0
 16 17  1  0
 17 18  2  0
 18 19  1  0
 19 20  2  0
 19 21  2  0
 19 22  1  0
 23 24  1  0
 24 25  1  0
 24 26  1  0
M  END
>  <s_m_source_file>  (1) 
ligprep_hif2a.smi

>  <i_m_source_file_index>  (1) 
16

>  <i_lp_mmshare_version>  (1) 
53161

>  <i_f3d_flags>  (1) 
0

>  <s_epik_input>  (1) 
W09IXVtDQEBIXTFDKEYpKEYpW0NIMl1jKGMxMiljKFtjSF1bY0hdYzJTKD1PKSg9TylbQ0gzXSlPYzNbY0hdYyhDbClbY0hdYyhDI04pW2NIXTM=

>  <s_epik_cmdline>  (1) 
J2VwaWtfcHl0aG9uJywgJy1waHQnLCAnMC4wJywgJy1waCcsICc3LjQnLCAnLXRuJywgJzgnLCAnLW1hJywgJzUwMCcsICctaW1hZScsICc8aW5maWxlLm1hZT4nLCAnLW9tYWUnLCAnPG91dGZpbGUubWFlPic=

>  <r_lp_tautomer_probability>  (1) 
1

>  <r_epik_Ionization_Penalty>  (1) 
  0.0012

>  <r_epik_Ionization_Penalty_Charging>  (1) 
  0.0000

>  <r_epik_Ionization_Penalty_Neutral>  (1) 
  0.0012

>  <r_epik_State_Penalty>  (1) 
 -0.0000

>  <r_epik_Charging_Adjusted_Penalty>  (1) 
0

>  <i_epik_Tot_Q>  (1) 
0

>  <i_epik_Tot_abs_Q>  (1) 
0

>  <s_lp_Force_Field>  (1) 
S-OPLS

>  <r_lp_Energy>  (1) 
27.1067

>  <b_lp_Chiralities_Consistent>  (1) 
1

>  <s_lp_Variant>  (1) 
lig_234-1

>  <s_i_glide_gridfile>  (1) 
glide-grid_HIF2a-5TBM

>  <i_i_glide_lignum>  (1) 
16

>  <i_i_glide_rotatable_bonds>  (1) 
4

>  <r_i_docking_score>  (1) 
-11.3938759887784

>  <r_i_glide_ligand_efficiency>  (1) 
-0.438225999568401

>  <r_i_glide_ligand_efficiency_sa>  (1) 
-1.29824279938534

>  <r_i_glide_ligand_efficiency_ln>  (1) 
-2.67581438960812

>  <r_i_glide_gscore>  (1) 
-11.3938759887784

>  <r_i_glide_lipo>  (1) 
-5.08715893393426

>  <r_i_glide_hbond>  (1) 
-0.32

>  <r_i_glide_metal>  (1) 
-0

>  <r_i_glide_rewards>  (1) 
-3.02955491671702

>  <r_i_glide_evdw>  (1) 
-49.7047157287598

>  <r_i_glide_ecoul>  (1) 
-6.41582870483398

>  <r_i_glide_erotb>  (1) 
0.490447954035945

>  <r_i_glide_esite>  (1) 
0

>  <r_i_glide_emodel>  (1) 
-79.0912623771794

>  <r_i_glide_energy>  (1) 
-56.1205444335938

>  <r_i_glide_einternal>  (1) 
0.626510202884674

>  <i_i_glide_confnum>  (1) 
3

>  <i_i_glide_posenum>  (1) 
5

>  <r_i_glide_eff_state_penalty>  (1) 
-0

>  <r_i_glide_rmsd>  (1) 
0.0912151914952958

>  <s_glide_core_constrain_type>  (1) 
snapped_core_restrain

$$$$
