lig_165
     RDKit          3D

 26 28  0  0  1  0  0  0  0  0999 V2000
   18.8188   -1.0523  -10.1456 C   0  0  0  0  0  0  0  0  0  0  0  0
   19.5102   -2.0401  -10.8704 C   0  0  0  0  0  0  0  0  0  0  0  0
   18.9386   -3.2458  -11.0757 F   0  0  0  0  0  0  0  0  0  0  0  0
   20.7827   -1.7648  -11.3983 C   0  0  0  0  0  0  0  0  0  0  0  0
   21.3589   -0.4978  -11.1906 C   0  0  0  0  0  0  0  0  0  0  0  0
   22.5828   -0.2098  -11.7150 O   0  0  0  0  0  0  0  0  0  0  0  0
   23.6986   -0.3357  -10.9279 C   0  0  0  0  0  0  0  0  0  0  0  0
   23.7011   -0.8401   -9.6006 C   0  0  0  0  0  0  0  0  0  0  0  0
   24.9160   -0.9992   -8.8943 C   0  0  0  0  0  0  0  0  0  0  0  0
   26.1483   -0.6811   -9.5047 C   0  0  0  0  0  0  0  0  0  0  0  0
   27.6697   -0.9234   -8.5772 S   0  0  0  0  0  0  0  0  0  0  0  0
   27.4139   -1.8920   -7.5025 O   0  0  0  0  0  0  0  0  0  0  0  0
   28.7725   -1.1906   -9.5049 O   0  0  0  0  0  0  0  0  0  0  0  0
   27.9915    0.7013   -7.8053 C   0  0  0  0  0  0  0  0  0  0  0  0
   26.1250   -0.1333  -10.8065 C   0  0  0  0  0  0  0  0  0  0  0  0
   24.9256    0.0375  -11.4890 C   0  0  0  0  0  0  0  0  0  0  0  0
   25.1300    0.6172  -12.8650 C   0  0  0  0  0  0  0  0  0  0  0  0
   26.6545    0.5175  -13.0579 C   0  0  0  0  0  0  0  0  0  0  0  0
   27.1470    1.5265  -13.7836 F   0  0  0  0  0  0  0  0  0  0  0  0
   26.8843   -0.6175  -13.7193 F   0  0  0  0  0  0  0  0  0  0  0  0
   27.2660    0.3792  -11.6365 C   0  0  1  0  0  0  0  0  0  0  0  0
   27.6211    1.6890  -11.1425 N   0  0  0  0  0  0  0  0  0  0  0  0
   20.6668    0.4899  -10.4670 C   0  0  0  0  0  0  0  0  0  0  0  0
   19.3871    0.2223   -9.9601 C   0  0  0  0  0  0  0  0  0  0  0  0
   18.6752    1.2681   -9.2499 C   0  0  0  0  0  0  0  0  0  0  0  0
   18.1136    2.0996   -8.6766 N   0  0  0  0  0  0  0  0  0  0  0  0
  1 24  2  0
  1  2  1  0
  2  3  1  0
  2  4  2  0
  4  5  1  0
  5  6  1  0
  5 23  2  0
  6  7  1  0
  7 16  1  0
  7  8  2  0
  8  9  1  0
  9 10  2  0
 10 11  1  0
 10 15  1  0
 11 12  2  0
 11 13  2  0
 11 14  1  0
 15 21  1  0
 15 16  2  0
 16 17  1  0
 17 18  1  0
 18 19  1  0
 18 20  1  0
 18 21  1  0
 21 22  1  1
 23 24  1  0
 24 25  1  0
 25 26  3  0
M  END
>  <s_m_source_file>  (1) 
ligprep_hif2a.smi

>  <i_m_source_file_index>  (1) 
8

>  <i_lp_mmshare_version>  (1) 
53161

>  <i_f3d_flags>  (1) 
0

>  <s_epik_input>  (1) 
RmMxW2NIXWMoQyNOKVtjSF1jKFtjSF0xKU9jKFtjSF1bY0hdYzJTKD1PKSg9TylbQ0gzXSljKGMyMylbQ0gyXUMoRikoRilbQ0BIXTNbTkgyXQ==

>  <s_epik_cmdline>  (1) 
J2VwaWtfcHl0aG9uJywgJy1waHQnLCAnMC4wJywgJy1waCcsICc3LjQnLCAnLXRuJywgJzgnLCAnLW1hJywgJzUwMCcsICctaW1hZScsICc8aW5maWxlLm1hZT4nLCAnLW9tYWUnLCAnPG91dGZpbGUubWFlPic=

>  <r_lp_tautomer_probability>  (1) 
1

>  <r_epik_Ionization_Penalty>  (1) 
  0.0349

>  <r_epik_Ionization_Penalty_Charging>  (1) 
  0.0000

>  <r_epik_Ionization_Penalty_Neutral>  (1) 
  0.0349

>  <r_epik_State_Penalty>  (1) 
  0.0291

>  <r_epik_Charging_Adjusted_Penalty>  (1) 
0.0290932

>  <i_epik_Tot_Q>  (1) 
0

>  <i_epik_Tot_abs_Q>  (1) 
0

>  <s_lp_Force_Field>  (1) 
S-OPLS

>  <r_lp_Energy>  (1) 
31.5232

>  <b_lp_Chiralities_Consistent>  (1) 
1

>  <s_lp_Variant>  (1) 
lig_165-1

>  <s_i_glide_gridfile>  (1) 
glide-grid_HIF2a-5TBM

>  <i_i_glide_lignum>  (1) 
8

>  <i_i_glide_rotatable_bonds>  (1) 
3

>  <r_i_docking_score>  (1) 
-11.0575363966577

>  <r_i_glide_ligand_efficiency>  (1) 
-0.425289861409912

>  <r_i_glide_ligand_efficiency_sa>  (1) 
-1.25991954099207

>  <r_i_glide_ligand_efficiency_ln>  (1) 
-2.59682614001879

>  <r_i_glide_gscore>  (1) 
-11.0866363966577

>  <r_i_glide_lipo>  (1) 
-4.76464635838708

>  <r_i_glide_hbond>  (1) 
-0.0798034466475835

>  <r_i_glide_metal>  (1) 
-0

>  <r_i_glide_rewards>  (1) 
-3.4412982698499

>  <r_i_glide_evdw>  (1) 
-53.7991981506348

>  <r_i_glide_ecoul>  (1) 
-3.3963086605072

>  <r_i_glide_erotb>  (1) 
0.398517884834666

>  <r_i_glide_esite>  (1) 
0

>  <r_i_glide_emodel>  (1) 
-94.6509091673757

>  <r_i_glide_energy>  (1) 
-57.195506811142

>  <r_i_glide_einternal>  (1) 
1.29391310110805e-07

>  <i_i_glide_confnum>  (1) 
1

>  <i_i_glide_posenum>  (1) 
1

>  <r_i_glide_eff_state_penalty>  (1) 
0.0291

>  <r_i_glide_rmsd>  (1) 
0.0721487667691783

>  <s_glide_core_constrain_type>  (1) 
snapped_core_restrain

$$$$
