lig_289
     RDKit          3D

 26 28  0  0  1  0  0  0  0  0999 V2000
   27.6210    1.6878  -11.1735 O   0  0  0  0  0  0  0  0  0  0  0  0
   27.3049    0.3877  -11.6193 C   0  0  1  0  0  0  0  0  0  0  0  0
   26.1684   -0.1681  -10.7964 C   0  0  0  0  0  0  0  0  0  0  0  0
   24.9637   -0.0333  -11.4774 C   0  0  0  0  0  0  0  0  0  0  0  0
   23.7379   -0.4161  -10.9168 C   0  0  0  0  0  0  0  0  0  0  0  0
   22.6185   -0.2578  -11.6928 O   0  0  0  0  0  0  0  0  0  0  0  0
   21.3884   -0.5202  -11.1683 C   0  0  0  0  0  0  0  0  0  0  0  0
   20.7983   -1.7807  -11.3832 C   0  0  0  0  0  0  0  0  0  0  0  0
   19.5152   -2.0404  -10.8792 C   0  0  0  0  0  0  0  0  0  0  0  0
   18.9370   -3.2406  -11.1022 F   0  0  0  0  0  0  0  0  0  0  0  0
   18.8211   -1.0427  -10.1689 C   0  0  0  0  0  0  0  0  0  0  0  0
   19.4099    0.2211   -9.9608 C   0  0  0  0  0  0  0  0  0  0  0  0
   18.6966    1.2622   -9.2506 C   0  0  0  0  0  0  0  0  0  0  0  0
   18.1293    2.0886   -8.6760 N   0  0  0  0  0  0  0  0  0  0  0  0
   20.7024    0.4778  -10.4489 C   0  0  0  0  0  0  0  0  0  0  0  0
   23.7447   -0.9387   -9.5968 C   0  0  0  0  0  0  0  0  0  0  0  0
   24.9660   -1.0831   -8.8946 C   0  0  0  0  0  0  0  0  0  0  0  0
   26.1924   -0.7227   -9.4992 C   0  0  0  0  0  0  0  0  0  0  0  0
   27.7155   -0.9178   -8.5769 S   0  0  0  0  0  0  0  0  0  0  0  0
   27.4721   -1.8563   -7.4758 O   0  0  0  0  0  0  0  0  0  0  0  0
   28.8066   -1.2156   -9.5079 O   0  0  0  0  0  0  0  0  0  0  0  0
   28.0210    0.7422   -7.8720 C   0  0  0  0  0  0  0  0  0  0  0  0
   25.1596    0.5879  -12.8283 C   0  0  1  0  0  0  0  0  0  0  0  0
   24.8215    1.8609  -12.6758 F   0  0  0  0  0  0  0  0  0  0  0  0
   26.6773    0.4578  -13.0293 C   0  0  1  0  0  0  0  0  0  0  0  0
   27.2207    1.3461  -13.8648 F   0  0  0  0  0  0  0  0  0  0  0  0
  2  1  1  1
  2 25  1  0
  2  3  1  0
  3 18  1  0
  3  4  2  0
  4  5  1  0
  4 23  1  0
  5  6  1  0
  5 16  2  0
  6  7  1  0
  7 15  1  0
  7  8  2  0
  8  9  1  0
  9 10  1  0
  9 11  2  0
 11 12  1  0
 12 13  1  0
 12 15  2  0
 13 14  3  0
 16 17  1  0
 17 18  2  0
 18 19  1  0
 19 20  2  0
 19 21  2  0
 19 22  1  0
 23 24  1  1
 23 25  1  0
 25 26  1  1
M  END
>  <s_m_source_file>  (1) 
ligprep_hif2a.smi

>  <i_m_source_file_index>  (1) 
25

>  <i_lp_mmshare_version>  (1) 
53161

>  <i_f3d_flags>  (1) 
0

>  <s_epik_input>  (1) 
W09IXVtDQEBIXTFbQ0BIXShGKVtDQEhdKEYpYyhjMTIpYyhbY0hdW2NIXWMyUyg9TykoPU8pW0NIM10pT2MzW2NIXWMoRilbY0hdYyhDI04pW2NIXTM=

>  <s_epik_cmdline>  (1) 
J2VwaWtfcHl0aG9uJywgJy1waHQnLCAnMC4wJywgJy1waCcsICc3LjQnLCAnLXRuJywgJzgnLCAnLW1hJywgJzUwMCcsICctaW1hZScsICc8aW5maWxlLm1hZT4nLCAnLW9tYWUnLCAnPG91dGZpbGUubWFlPic=

>  <r_lp_tautomer_probability>  (1) 
1

>  <r_epik_Ionization_Penalty>  (1) 
  0.0001

>  <r_epik_Ionization_Penalty_Charging>  (1) 
  0.0000

>  <r_epik_Ionization_Penalty_Neutral>  (1) 
  0.0001

>  <r_epik_State_Penalty>  (1) 
 -0.0000

>  <r_epik_Charging_Adjusted_Penalty>  (1) 
0

>  <i_epik_Tot_Q>  (1) 
0

>  <i_epik_Tot_abs_Q>  (1) 
0

>  <s_lp_Force_Field>  (1) 
S-OPLS

>  <r_lp_Energy>  (1) 
21.8949

>  <b_lp_Chiralities_Consistent>  (1) 
1

>  <s_lp_Variant>  (1) 
lig_289-1

>  <s_i_glide_gridfile>  (1) 
glide-grid_HIF2a-5TBM

>  <i_i_glide_lignum>  (1) 
25

>  <i_i_glide_rotatable_bonds>  (1) 
4

>  <r_i_docking_score>  (1) 
-11.6654856335111

>  <r_i_glide_ligand_efficiency>  (1) 
-0.448672524365812

>  <r_i_glide_ligand_efficiency_sa>  (1) 
-1.32919058799258

>  <r_i_glide_ligand_efficiency_ln>  (1) 
-2.73960102344966

>  <r_i_glide_gscore>  (1) 
-11.6654856335111

>  <r_i_glide_lipo>  (1) 
-4.81635113873159

>  <r_i_glide_hbond>  (1) 
-0.32

>  <r_i_glide_metal>  (1) 
-0

>  <r_i_glide_rewards>  (1) 
-3.41211246529833

>  <r_i_glide_evdw>  (1) 
-54.8286476135254

>  <r_i_glide_ecoul>  (1) 
-6.03001356124878

>  <r_i_glide_erotb>  (1) 
0.5289123853824

>  <r_i_glide_esite>  (1) 
0

>  <r_i_glide_emodel>  (1) 
-99.8799870541715

>  <r_i_glide_energy>  (1) 
-60.8586611747742

>  <r_i_glide_einternal>  (1) 
0.00634645530954003

>  <i_i_glide_confnum>  (1) 
1

>  <i_i_glide_posenum>  (1) 
1

>  <r_i_glide_eff_state_penalty>  (1) 
-0

>  <r_i_glide_rmsd>  (1) 
0.0852515785993602

>  <s_glide_core_constrain_type>  (1) 
snapped_core_restrain

$$$$
