lig_163
     RDKit          3D

 26 28  0  0  1  0  0  0  0  0999 V2000
   27.6215    1.6907  -11.1916 O   0  0  0  0  0  0  0  0  0  0  0  0
   27.2823    0.4079  -11.6600 C   0  0  1  0  0  0  0  0  0  0  0  0
   26.1422   -0.1137  -10.8272 C   0  0  0  0  0  0  0  0  0  0  0  0
   24.9396    0.0537  -11.5072 C   0  0  0  0  0  0  0  0  0  0  0  0
   23.7129   -0.3222  -10.9427 C   0  0  0  0  0  0  0  0  0  0  0  0
   22.5915   -0.2001  -11.7241 O   0  0  0  0  0  0  0  0  0  0  0  0
   21.3669   -0.4931  -11.1973 C   0  0  0  0  0  0  0  0  0  0  0  0
   20.7904   -1.7605  -11.4108 C   0  0  0  0  0  0  0  0  0  0  0  0
   19.5174   -2.0426  -10.8823 C   0  0  0  0  0  0  0  0  0  0  0  0
   18.9479   -3.2494  -11.0909 F   0  0  0  0  0  0  0  0  0  0  0  0
   18.8209   -1.0592  -10.1556 C   0  0  0  0  0  0  0  0  0  0  0  0
   19.3888    0.2167   -9.9639 C   0  0  0  0  0  0  0  0  0  0  0  0
   18.6794    1.2595   -9.2500 C   0  0  0  0  0  0  0  0  0  0  0  0
   18.1191    2.0900   -8.6754 N   0  0  0  0  0  0  0  0  0  0  0  0
   20.6682    0.4891  -10.4724 C   0  0  0  0  0  0  0  0  0  0  0  0
   23.7214   -0.8261   -9.6149 C   0  0  0  0  0  0  0  0  0  0  0  0
   24.9387   -0.9834   -8.9130 C   0  0  0  0  0  0  0  0  0  0  0  0
   26.1674   -0.6594   -9.5242 C   0  0  0  0  0  0  0  0  0  0  0  0
   27.6821   -0.8863   -8.5928 S   0  0  0  0  0  0  0  0  0  0  0  0
   27.4226   -1.8111   -7.4810 O   0  0  0  0  0  0  0  0  0  0  0  0
   28.7713   -1.2109   -9.5165 O   0  0  0  0  0  0  0  0  0  0  0  0
   28.0219    0.7680   -7.8820 C   0  0  0  0  0  0  0  0  0  0  0  0
   25.1433    0.6440  -12.8770 C   0  0  0  0  0  0  0  0  0  0  0  0
   26.6645    0.5419  -13.0751 C   0  0  0  0  0  0  0  0  0  0  0  0
   27.1708    1.5412  -13.7983 F   0  0  0  0  0  0  0  0  0  0  0  0
   26.8991   -0.5961  -13.7288 F   0  0  0  0  0  0  0  0  0  0  0  0
  2  1  1  1
  2 24  1  0
  2  3  1  0
  3 18  1  0
  3  4  2  0
  4  5  1  0
  4 23  1  0
  5  6  1  0
  5 16  2  0
  6  7  1  0
  7 15  1  0
  7  8  2  0
  8  9  1  0
  9 10  1  0
  9 11  2  0
 11 12  1  0
 12 13  1  0
 12 15  2  0
 13 14  3  0
 16 17  1  0
 17 18  2  0
 18 19  1  0
 19 20  2  0
 19 21  2  0
 19 22  1  0
 23 24  1  0
 24 25  1  0
 24 26  1  0
M  END
>  <s_m_source_file>  (1) 
ligprep_hif2a.smi

>  <i_m_source_file_index>  (1) 
6

>  <i_lp_mmshare_version>  (1) 
53161

>  <i_f3d_flags>  (1) 
0

>  <s_epik_input>  (1) 
W09IXVtDQEBIXTFDKEYpKEYpW0NIMl1jKGMxMiljKFtjSF1bY0hdYzJTKD1PKSg9TylbQ0gzXSlPYzNbY0hdYyhGKVtjSF1jKEMjTilbY0hdMw==

>  <s_epik_cmdline>  (1) 
J2VwaWtfcHl0aG9uJywgJy1waHQnLCAnMC4wJywgJy1waCcsICc3LjQnLCAnLXRuJywgJzgnLCAnLW1hJywgJzUwMCcsICctaW1hZScsICc8aW5maWxlLm1hZT4nLCAnLW9tYWUnLCAnPG91dGZpbGUubWFlPic=

>  <r_lp_tautomer_probability>  (1) 
1

>  <r_epik_Ionization_Penalty>  (1) 
  0.0012

>  <r_epik_Ionization_Penalty_Charging>  (1) 
  0.0000

>  <r_epik_Ionization_Penalty_Neutral>  (1) 
  0.0012

>  <r_epik_State_Penalty>  (1) 
 -0.0000

>  <r_epik_Charging_Adjusted_Penalty>  (1) 
0

>  <i_epik_Tot_Q>  (1) 
0

>  <i_epik_Tot_abs_Q>  (1) 
0

>  <s_lp_Force_Field>  (1) 
S-OPLS

>  <r_lp_Energy>  (1) 
26.0446

>  <b_lp_Chiralities_Consistent>  (1) 
1

>  <s_lp_Variant>  (1) 
lig_163-1

>  <s_i_glide_gridfile>  (1) 
glide-grid_HIF2a-5TBM

>  <i_i_glide_lignum>  (1) 
6

>  <i_i_glide_rotatable_bonds>  (1) 
4

>  <r_i_docking_score>  (1) 
-11.6659309603248

>  <r_i_glide_ligand_efficiency>  (1) 
-0.448689652320183

>  <r_i_glide_ligand_efficiency_sa>  (1) 
-1.32924132949001

>  <r_i_glide_ligand_efficiency_ln>  (1) 
-2.73970560699061

>  <r_i_glide_gscore>  (1) 
-11.6659309603248

>  <r_i_glide_lipo>  (1) 
-4.75862042484576

>  <r_i_glide_hbond>  (1) 
-0.32

>  <r_i_glide_metal>  (1) 
-0

>  <r_i_glide_rewards>  (1) 
-3.44254902884021

>  <r_i_glide_evdw>  (1) 
-54.3606872558594

>  <r_i_glide_ecoul>  (1) 
-6.37093019485474

>  <r_i_glide_erotb>  (1) 
0.5289123853824

>  <r_i_glide_esite>  (1) 
0

>  <r_i_glide_emodel>  (1) 
-101.903127994196

>  <r_i_glide_energy>  (1) 
-60.7316174507141

>  <r_i_glide_einternal>  (1) 
0.00623124511912465

>  <i_i_glide_confnum>  (1) 
1

>  <i_i_glide_posenum>  (1) 
1

>  <r_i_glide_eff_state_penalty>  (1) 
-0

>  <r_i_glide_rmsd>  (1) 
0.0640791469618792

>  <s_glide_core_constrain_type>  (1) 
snapped_core_restrain

$$$$
