lig_58
     RDKit          3D

 27 29  0  0  1  0  0  0  0  0999 V2000
   68.2803  -34.7081   27.0813 C   0  0  0  0  0  0  0  0  0  0  0  0
   68.7200  -35.5752   28.0845 C   0  0  0  0  0  0  0  0  0  0  0  0
   70.0756  -35.5573   28.4379 C   0  0  0  0  0  0  0  0  0  0  0  0
   70.9967  -34.6841   27.8578 C   0  0  0  0  0  0  0  0  0  0  0  0
   70.5549  -33.8289   26.8502 C   0  0  0  0  0  0  0  0  0  0  0  0
   69.1971  -33.8463   26.4415 C   0  0  0  0  0  0  0  0  0  0  0  0
   69.0697  -32.9271   25.3934 C   0  0  0  0  0  0  0  0  0  0  0  0
   70.2986  -32.3421   25.1626 C   0  0  0  0  0  0  0  0  0  0  0  0
   71.2142  -32.8850   26.0769 N   0  0  0  0  0  0  0  0  0  0  0  0
   72.6331  -32.5721   26.2026 C   0  0  0  0  0  0  0  0  0  0  0  0
   70.7007  -31.3009   24.1588 C   0  0  0  0  0  0  0  0  0  0  0  0
   71.7599  -30.6540   24.2995 O   0  0  0  0  0  0  0  0  0  0  0  0
   69.9609  -31.0541   23.1792 O   0  0  0  0  0  0  0  0  0  0  0  0
   67.7944  -32.6359   24.6495 C   0  0  0  0  0  0  0  0  0  0  0  0
   67.1572  -31.3049   25.0764 C   0  0  0  0  0  0  0  0  0  0  0  0
   66.5261  -31.3485   26.4724 C   0  0  0  0  0  0  0  0  0  0  0  0
   65.3801  -32.1750   26.3781 O   0  0  0  0  0  0  0  0  0  0  0  0
   64.5074  -32.2127   27.4360 C   0  0  0  0  0  0  0  0  0  0  0  0
   64.8154  -31.7588   28.7400 C   0  0  0  0  0  0  0  0  0  0  0  0
   63.8634  -31.8681   29.7749 C   0  0  0  0  0  0  0  0  0  0  0  0
   62.6052  -32.4591   29.5110 C   0  0  0  0  0  0  0  0  0  0  0  0
   62.2887  -32.9033   28.2078 C   0  0  0  0  0  0  0  0  0  0  0  0
   63.2366  -32.7570   27.1781 C   0  0  0  0  0  0  0  0  0  0  0  0
   60.9588  -33.5646   27.9044 C   0  0  0  0  0  0  0  0  0  0  0  0
   61.4497  -32.6513   30.7782 Cl  0  0  0  0  0  0  0  0  0  0  0  0
   64.2079  -31.3592   31.1632 C   0  0  0  0  0  0  0  0  0  0  0  0
   70.6457  -36.6440   29.5781 Cl  0  0  0  0  0  0  0  0  0  0  0  0
  1  6  2  0
  1  2  1  0
  2  3  2  0
  3  4  1  0
  3 27  1  0
  4  5  2  0
  5  9  1  0
  5  6  1  0
  6  7  1  0
  7  8  2  0
  7 14  1  0
  8  9  1  0
  8 11  1  0
  9 10  1  0
 11 12  2  0
 11 13  1  0
 14 15  1  0
 15 16  1  0
 16 17  1  0
 17 18  1  0
 18 23  1  0
 18 19  2  0
 19 20  1  0
 20 21  2  0
 20 26  1  0
 21 22  1  0
 21 25  1  0
 22 23  2  0
 22 24  1  0
M  CHG  1  13  -1
M  END
>  <s_m_source_file>  (1) 
ligprep_mcl1.smi

>  <i_m_source_file_index>  (1) 
33

>  <i_lp_mmshare_version>  (1) 
53161

>  <i_f3d_flags>  (1) 
0

>  <s_epik_input>  (1) 
W2NIXTFjKENsKVtjSF1bY0hdYyhjMTIpYyhjKG4yW0NIM10pQyg9TylbT0hdKVtDSDJdW0NIMl1bQ0gyXU9jM1tjSF1jKFtDSDNdKWMoQ2wpYyhbY0hdMylbQ0gzXQ==

>  <s_epik_cmdline>  (1) 
J2VwaWtfcHl0aG9uJywgJy1waHQnLCAnMC4wJywgJy1waCcsICc3LjQnLCAnLXRuJywgJzgnLCAnLW1hJywgJzUwMCcsICctaW1hZScsICc8aW5maWxlLm1hZT4nLCAnLW9tYWUnLCAnPG91dGZpbGUubWFlPic=

>  <r_lp_tautomer_probability>  (1) 
1

>  <r_epik_Ionization_Penalty>  (1) 
  0.0063

>  <r_epik_Ionization_Penalty_Charging>  (1) 
  0.0063

>  <r_epik_Ionization_Penalty_Neutral>  (1) 
  0.0000

>  <r_epik_State_Penalty>  (1) 
 -0.0000

>  <r_epik_Charging_Adjusted_Penalty>  (1) 
0.0062946

>  <i_epik_Tot_Q>  (1) 
-1

>  <i_epik_Tot_abs_Q>  (1) 
1

>  <s_lp_Force_Field>  (1) 
S-OPLS

>  <r_lp_Energy>  (1) 
42.9066

>  <b_lp_Chiralities_Consistent>  (1) 
1

>  <s_lp_Variant>  (1) 
lig_58-1

>  <s_i_glide_gridfile>  (1) 
glide-grid_MCL1-4HW3

>  <i_i_glide_lignum>  (1) 
33

>  <i_i_glide_rotatable_bonds>  (1) 
6

>  <r_i_docking_score>  (1) 
-9.23473249492337

>  <r_i_glide_ligand_efficiency>  (1) 
-0.342027129441606

>  <r_i_glide_ligand_efficiency_sa>  (1) 
-1.02608138719755

>  <r_i_glide_ligand_efficiency_ln>  (1) 
-2.14969347835427

>  <r_i_glide_gscore>  (1) 
-9.23473249492337

>  <r_i_glide_lipo>  (1) 
-5.55812647669645

>  <r_i_glide_hbond>  (1) 
-0.385850975999246

>  <r_i_glide_metal>  (1) 
-0

>  <r_i_glide_rewards>  (1) 
-1.57550192508275

>  <r_i_glide_evdw>  (1) 
-38.6523284912109

>  <r_i_glide_ecoul>  (1) 
-3.03232955932617

>  <r_i_glide_erotb>  (1) 
0.717799919275458

>  <r_i_glide_esite>  (1) 
-0.0455871779609032

>  <r_i_glide_emodel>  (1) 
-66.3061099933386

>  <r_i_glide_energy>  (1) 
-41.6846580505371

>  <r_i_glide_einternal>  (1) 
3.68824815750122

>  <i_i_glide_confnum>  (1) 
2

>  <i_i_glide_posenum>  (1) 
4

>  <r_i_glide_eff_state_penalty>  (1) 
-0

>  <r_i_glide_rmsd>  (1) 
0.0819731172927015

>  <s_glide_core_constrain_type>  (1) 
snapped_core_restrain

$$$$
