lig_36
     RDKit          3D

 25 27  0  0  1  0  0  0  0  0999 V2000
   68.6282  -35.7025   28.0525 C   0  0  0  0  0  0  0  0  0  0  0  0
   69.9419  -35.6584   28.5580 C   0  0  0  0  0  0  0  0  0  0  0  0
   70.8631  -34.7392   28.0209 C   0  0  0  0  0  0  0  0  0  0  0  0
   70.4626  -33.8802   26.9795 C   0  0  0  0  0  0  0  0  0  0  0  0
   69.1474  -33.9197   26.4377 C   0  0  0  0  0  0  0  0  0  0  0  0
   68.2375  -34.8436   27.0052 C   0  0  0  0  0  0  0  0  0  0  0  0
   69.0671  -32.9350   25.3890 C   0  0  0  0  0  0  0  0  0  0  0  0
   70.2930  -32.3073   25.3211 C   0  0  0  0  0  0  0  0  0  0  0  0
   71.1163  -32.8865   26.2740 N   0  0  0  0  0  0  0  0  0  0  0  0
   70.8494  -31.1910   24.5056 C   0  0  0  0  0  0  0  0  0  0  0  0
   70.1879  -30.7084   23.5581 O   0  0  0  0  0  0  0  0  0  0  0  0
   71.9808  -30.7440   24.7942 O   0  0  0  0  0  0  0  0  0  0  0  0
   67.8526  -32.6102   24.5637 C   0  0  0  0  0  0  0  0  0  0  0  0
   67.1631  -31.3155   25.0246 C   0  0  0  0  0  0  0  0  0  0  0  0
   66.5389  -31.3948   26.4247 C   0  0  0  0  0  0  0  0  0  0  0  0
   65.3908  -32.2249   26.3502 O   0  0  0  0  0  0  0  0  0  0  0  0
   64.5228  -32.2333   27.4159 C   0  0  0  0  0  0  0  0  0  0  0  0
   63.2255  -32.7265   27.1766 C   0  0  0  0  0  0  0  0  0  0  0  0
   62.2921  -32.8307   28.2204 C   0  0  0  0  0  0  0  0  0  0  0  0
   62.6489  -32.4299   29.5216 C   0  0  0  0  0  0  0  0  0  0  0  0
   63.9334  -31.8850   29.7795 C   0  0  0  0  0  0  0  0  0  0  0  0
   64.8661  -31.7930   28.7179 C   0  0  0  0  0  0  0  0  0  0  0  0
   64.2875  -31.4179   31.1907 C   0  0  0  0  0  0  0  0  0  0  0  0
   65.7568  -31.0255   31.4116 C   0  0  0  0  0  0  0  0  0  0  0  0
   61.4864  -32.6438   30.7806 Cl  0  0  0  0  0  0  0  0  0  0  0  0
  1  6  2  0
  1  2  1  0
  2  3  2  0
  3  4  1  0
  4  9  1  0
  4  5  2  0
  5  6  1  0
  5  7  1  0
  7  8  2  0
  7 13  1  0
  8  9  1  0
  8 10  1  0
 10 11  2  0
 10 12  1  0
 13 14  1  0
 14 15  1  0
 15 16  1  0
 16 17  1  0
 17 22  1  0
 17 18  2  0
 18 19  1  0
 19 20  2  0
 20 21  1  0
 20 25  1  0
 21 22  2  0
 21 23  1  0
 23 24  1  0
M  CHG  1  12  -1
M  END
>  <s_m_source_file>  (1) 
ligprep_mcl1.smi

>  <i_m_source_file_index>  (1) 
12

>  <i_lp_mmshare_version>  (1) 
53161

>  <i_f3d_flags>  (1) 
0

>  <s_epik_input>  (1) 
W2NIXTFbY0hdW2NIXVtjSF1jKGMxMiljKGMoW25IXTIpQyg9TylbT0hdKVtDSDJdW0NIMl1bQ0gyXU9jM1tjSF1bY0hdYyhDbCljKFtjSF0zKVtDSDJdW0NIM10=

>  <s_epik_cmdline>  (1) 
J2VwaWtfcHl0aG9uJywgJy1waHQnLCAnMC4wJywgJy1waCcsICc3LjQnLCAnLXRuJywgJzgnLCAnLW1hJywgJzUwMCcsICctaW1hZScsICc8aW5maWxlLm1hZT4nLCAnLW9tYWUnLCAnPG91dGZpbGUubWFlPic=

>  <r_lp_tautomer_probability>  (1) 
1

>  <r_epik_Ionization_Penalty>  (1) 
  0.0005

>  <r_epik_Ionization_Penalty_Charging>  (1) 
  0.0005

>  <r_epik_Ionization_Penalty_Neutral>  (1) 
  0.0000

>  <r_epik_State_Penalty>  (1) 
 -0.0000

>  <r_epik_Charging_Adjusted_Penalty>  (1) 
0.000518745

>  <i_epik_Tot_Q>  (1) 
-1

>  <i_epik_Tot_abs_Q>  (1) 
1

>  <s_lp_Force_Field>  (1) 
S-OPLS

>  <r_lp_Energy>  (1) 
36.1789

>  <b_lp_Chiralities_Consistent>  (1) 
1

>  <s_lp_Variant>  (1) 
lig_36-1

>  <s_i_glide_gridfile>  (1) 
glide-grid_MCL1-4HW3

>  <i_i_glide_lignum>  (1) 
12

>  <i_i_glide_rotatable_bonds>  (1) 
7

>  <r_i_docking_score>  (1) 
-9.34615192296445

>  <r_i_glide_ligand_efficiency>  (1) 
-0.373846076918578

>  <r_i_glide_ligand_efficiency_sa>  (1) 
-1.09313255909833

>  <r_i_glide_ligand_efficiency_ln>  (1) 
-2.21531808731451

>  <r_i_glide_gscore>  (1) 
-9.34615192296445

>  <r_i_glide_lipo>  (1) 
-5.53208315619486

>  <r_i_glide_hbond>  (1) 
-0.424056585573127

>  <r_i_glide_metal>  (1) 
-0

>  <r_i_glide_rewards>  (1) 
-1.74807548436851

>  <r_i_glide_evdw>  (1) 
-43.9625778198242

>  <r_i_glide_ecoul>  (1) 
-2.97815608978271

>  <r_i_glide_erotb>  (1) 
1.05211810294781

>  <r_i_glide_esite>  (1) 
-0.0492024953171454

>  <r_i_glide_emodel>  (1) 
-79.8070750594374

>  <r_i_glide_energy>  (1) 
-46.9407339096069

>  <r_i_glide_einternal>  (1) 
3.33714985847473

>  <i_i_glide_confnum>  (1) 
22

>  <i_i_glide_posenum>  (1) 
40

>  <r_i_glide_eff_state_penalty>  (1) 
-0

>  <r_i_glide_rmsd>  (1) 
0.0904486387150788

>  <s_glide_core_constrain_type>  (1) 
snapped_core_restrain

$$$$
