lig_CHEMBL3259820
     RDKit          3D

 29 32  0  0  1  0  0  0  0  0999 V2000
    5.6729   -0.4905   16.4667 C   0  0  0  0  0  0  0  0  0  0  0  0
    5.9275    0.4139   15.4768 C   0  0  0  0  0  0  0  0  0  0  0  0
    4.7675    0.5109   14.7383 N   0  0  0  0  0  0  0  0  0  0  0  0
    3.8468   -0.4039   15.3000 C   0  0  0  0  0  0  0  0  0  0  0  0
    4.4030   -1.0376   16.3309 N   0  0  0  0  0  0  0  0  0  0  0  0
    2.5535   -0.4550   14.7034 C   0  0  0  0  0  0  0  0  0  0  0  0
    1.6155   -1.3478   15.2541 N   0  0  0  0  0  0  0  0  0  0  0  0
    0.2399   -1.5532   15.0341 C   0  0  0  0  0  0  0  0  0  0  0  0
   -0.3640   -2.5878   15.7768 C   0  0  0  0  0  0  0  0  0  0  0  0
   -1.7386   -2.8560   15.6541 C   0  0  0  0  0  0  0  0  0  0  0  0
   -2.5355   -2.0908   14.7819 C   0  0  0  0  0  0  0  0  0  0  0  0
   -3.8769   -2.3595   14.6893 O   0  0  0  0  0  0  0  0  0  0  0  0
   -4.2148   -3.1236   13.5437 C   0  0  0  0  0  0  0  0  0  0  0  0
   -1.9609   -1.0410   14.0324 C   0  0  0  0  0  0  0  0  0  0  0  0
   -2.8072   -0.3078   13.2234 O   0  0  0  0  0  0  0  0  0  0  0  0
   -2.2326    0.6713   12.3704 C   0  0  0  0  0  0  0  0  0  0  0  0
   -0.5705   -0.7868   14.1614 C   0  0  0  0  0  0  0  0  0  0  0  0
    2.2380    0.3157   13.7042 N   0  0  0  0  0  0  0  0  0  0  0  0
    3.1586    1.2159   13.2147 C   0  0  0  0  0  0  0  0  0  0  0  0
    2.6759    2.1123   12.1486 C   0  0  0  0  0  0  0  0  0  0  0  0
    1.3240    2.5158   12.1115 C   0  0  0  0  0  0  0  0  0  0  0  0
    0.8497    3.3696   11.1037 C   0  0  0  0  0  0  0  0  0  0  0  0
    1.7268    3.8576   10.1150 C   0  0  0  0  0  0  0  0  0  0  0  0
    1.2245    4.8017    9.0708 C   0  0  0  0  0  0  0  0  0  0  0  0
    1.9098    5.7296    8.6497 O   0  0  0  0  0  0  0  0  0  0  0  0
    0.0121    4.5190    8.5943 N   0  0  0  0  0  0  0  0  0  0  0  0
    3.0853    3.4844   10.1514 C   0  0  0  0  0  0  0  0  0  0  0  0
    3.5507    2.6145   11.1565 C   0  0  0  0  0  0  0  0  0  0  0  0
    4.4396    1.3094   13.6970 C   0  0  0  0  0  0  0  0  0  0  0  0
  1  5  1  0
  1  2  2  0
  2  3  1  0
  3 29  1  0
  3  4  1  0
  4  5  2  0
  4  6  1  0
  6  7  1  0
  6 18  2  0
  7  8  1  0
  8 17  1  0
  8  9  2  0
  9 10  1  0
 10 11  2  0
 11 12  1  0
 11 14  1  0
 12 13  1  0
 14 15  1  0
 14 17  2  0
 15 16  1  0
 18 19  1  0
 19 20  1  0
 19 29  2  0
 20 28  1  0
 20 21  2  0
 21 22  1  0
 22 23  2  0
 23 24  1  0
 23 27  1  0
 24 25  2  0
 24 26  1  0
 27 28  2  0
M  END
>  <s_m_source_file>  (1) 
ligprep_syk.smi

>  <i_m_source_file_index>  (1) 
1

>  <i_lp_mmshare_version>  (1) 
53161

>  <i_f3d_flags>  (1) 
0

>  <s_epik_input>  (1) 
Tz1DKFtOSDJdKWMoW2NIXVtjSF0xKVtjSF1bY0hdYzEtYyhbY0hdMiluYyhjKG4yMyluW2NIXVtjSF0zKVtOSF1jNFtjSF1bY0hdYyhPW0NIM10pYyhbY0hdNClPW0NIM10=

>  <s_epik_cmdline>  (1) 
J2VwaWtfcHl0aG9uJywgJy1waHQnLCAnMC4wJywgJy1waCcsICc3LjQnLCAnLXRuJywgJzgnLCAnLW1hJywgJzUwMCcsICctaW1hZScsICc8aW5maWxlLm1hZT4nLCAnLW9tYWUnLCAnPG91dGZpbGUubWFlPic=

>  <r_lp_tautomer_probability>  (1) 
1

>  <r_epik_Ionization_Penalty>  (1) 
  0.0009

>  <r_epik_Ionization_Penalty_Charging>  (1) 
  0.0009

>  <r_epik_Ionization_Penalty_Neutral>  (1) 
  0.0000

>  <r_epik_State_Penalty>  (1) 
 -0.0000

>  <r_epik_Charging_Adjusted_Penalty>  (1) 
0.000851558

>  <i_epik_Tot_Q>  (1) 
0

>  <i_epik_Tot_abs_Q>  (1) 
0

>  <s_lp_Force_Field>  (1) 
S-OPLS

>  <r_lp_Energy>  (1) 
38.4753

>  <b_lp_Chiralities_Consistent>  (1) 
1

>  <s_lp_Variant>  (1) 
lig_CHEMBL3259820-1

>  <s_i_glide_gridfile>  (1) 
glide-grid_SYK-4PV0

>  <i_i_glide_lignum>  (1) 
1

>  <i_i_glide_rotatable_bonds>  (1) 
6

>  <r_i_docking_score>  (1) 
-7.72673212192774

>  <r_i_glide_ligand_efficiency>  (1) 
-0.266439038687163

>  <r_i_glide_ligand_efficiency_sa>  (1) 
-0.818585140659328

>  <r_i_glide_ligand_efficiency_ln>  (1) 
-1.7692257229004

>  <r_i_glide_gscore>  (1) 
-7.72673212192774

>  <r_i_glide_lipo>  (1) 
-2.56046004211494

>  <r_i_glide_hbond>  (1) 
-0.348710249678793

>  <r_i_glide_metal>  (1) 
-0

>  <r_i_glide_rewards>  (1) 
-2.35548869948475

>  <r_i_glide_evdw>  (1) 
-45.8843269348145

>  <r_i_glide_ecoul>  (1) 
-6.26127672195435

>  <r_i_glide_erotb>  (1) 
0.771334724384616

>  <r_i_glide_esite>  (1) 
0

>  <r_i_glide_emodel>  (1) 
-74.3459649107426

>  <r_i_glide_energy>  (1) 
-52.1456036567688

>  <r_i_glide_einternal>  (1) 
0.474345803260803

>  <i_i_glide_confnum>  (1) 
3

>  <i_i_glide_posenum>  (1) 
4

>  <r_i_glide_eff_state_penalty>  (1) 
-0

>  <r_i_glide_rmsd>  (1) 
0.0634941146510372

>  <s_glide_core_constrain_type>  (1) 
snapped_core_restrain

$$$$
