lig_CHEMBL3265032
     RDKit          3D

 31 36  0  0  1  0  0  0  0  0999 V2000
    1.0240    4.6981    9.1264 C   0  0  0  0  0  0  0  0  0  0  0  0
   -0.2086    4.7987    9.5662 N   0  0  0  0  0  0  0  0  0  0  0  0
   -0.2501    4.0553   10.7020 N   0  0  0  0  0  0  0  0  0  0  0  0
    0.9512    3.4517   11.0197 C   0  0  0  0  0  0  0  0  0  0  0  0
    1.3710    2.6058   12.0591 C   0  0  0  0  0  0  0  0  0  0  0  0
    2.7000    2.1329   12.0880 C   0  0  0  0  0  0  0  0  0  0  0  0
    3.1544    1.2380   13.1691 C   0  0  0  0  0  0  0  0  0  0  0  0
    4.4346    1.3278   13.6568 C   0  0  0  0  0  0  0  0  0  0  0  0
    4.7587    0.5194   14.6925 N   0  0  0  0  0  0  0  0  0  0  0  0
    3.8375   -0.4019   15.2422 C   0  0  0  0  0  0  0  0  0  0  0  0
    4.3922   -1.0464   16.2691 N   0  0  0  0  0  0  0  0  0  0  0  0
    5.6557   -0.4920   16.4233 C   0  0  0  0  0  0  0  0  0  0  0  0
    5.9166    0.4175   15.4327 C   0  0  0  0  0  0  0  0  0  0  0  0
    2.5415   -0.4456   14.6488 C   0  0  0  0  0  0  0  0  0  0  0  0
    1.6130   -1.3581   15.1947 N   0  0  0  0  0  0  0  0  0  0  0  0
    0.2341   -1.5615   14.9873 C   0  0  0  0  0  0  0  0  0  0  0  0
   -0.5548   -0.8139   14.0845 C   0  0  0  0  0  0  0  0  0  0  0  0
   -1.9333   -1.0535   13.9621 C   0  0  0  0  0  0  0  0  0  0  0  0
   -2.5718   -2.0223   14.7597 C   0  0  0  0  0  0  0  0  0  0  0  0
   -3.9659   -2.1649   14.6467 N   0  0  0  0  0  0  0  0  0  0  0  0
   -4.7595   -2.5141   15.8236 C   0  0  0  0  0  0  0  0  0  0  0  0
   -5.1714   -3.9995   15.7901 C   0  0  0  0  0  0  0  0  0  0  0  0
   -5.8031   -4.2971   14.5467 O   0  0  0  0  0  0  0  0  0  0  0  0
   -4.9043   -4.1198   13.4553 C   0  0  0  0  0  0  0  0  0  0  0  0
   -4.4768   -2.6407   13.3654 C   0  0  0  0  0  0  0  0  0  0  0  0
   -1.7898   -2.7952   15.6472 C   0  0  0  0  0  0  0  0  0  0  0  0
   -0.4001   -2.5691   15.7519 C   0  0  0  0  0  0  0  0  0  0  0  0
    2.2244    0.3434   13.6602 N   0  0  0  0  0  0  0  0  0  0  0  0
    3.5868    2.5534   11.0635 C   0  0  0  0  0  0  0  0  0  0  0  0
    3.1584    3.4043   10.0228 C   0  0  0  0  0  0  0  0  0  0  0  0
    1.8240    3.8672    9.9780 C   0  0  0  0  0  0  0  0  0  0  0  0
  1 31  1  0
  1  2  2  0
  2  3  1  0
  3  4  1  0
  4 31  2  0
  4  5  1  0
  5  6  2  0
  6  7  1  0
  6 29  1  0
  7 28  1  0
  7  8  2  0
  8  9  1  0
  9 13  1  0
  9 10  1  0
 10 11  2  0
 10 14  1  0
 11 12  1  0
 12 13  2  0
 14 15  1  0
 14 28  2  0
 15 16  1  0
 16 27  1  0
 16 17  2  0
 17 18  1  0
 18 19  2  0
 19 20  1  0
 19 26  1  0
 20 25  1  0
 20 21  1  0
 21 22  1  0
 22 23  1  0
 23 24  1  0
 24 25  1  0
 26 27  2  0
 29 30  2  0
 30 31  1  0
M  END
>  <s_m_source_file>  (1) 
ligprep_syk.smi

>  <i_m_source_file_index>  (1) 
39

>  <i_lp_mmshare_version>  (1) 
53161

>  <i_f3d_flags>  (1) 
0

>  <s_epik_input>  (1) 
W25IXTFuW2NIXWMoYzEyKVtjSF1bY0hdYyhbY0hdMiktYyhbY0hdMyluYyhjKG4zNCluW2NIXVtjSF00KVtOSF1jNVtjSF1bY0hdYyhbY0hdW2NIXTUpTjZbQ0gyXVtDSDJdT1tDSDJdW0NIMl02

>  <s_epik_cmdline>  (1) 
J2VwaWtfcHl0aG9uJywgJy1waHQnLCAnMC4wJywgJy1waCcsICc3LjQnLCAnLXRuJywgJzgnLCAnLW1hJywgJzUwMCcsICctaW1hZScsICc8aW5maWxlLm1hZT4nLCAnLW9tYWUnLCAnPG91dGZpbGUubWFlPic=

>  <r_lp_tautomer_probability>  (1) 
1

>  <r_epik_Ionization_Penalty>  (1) 
  0.0009

>  <r_epik_Ionization_Penalty_Charging>  (1) 
  0.0009

>  <r_epik_Ionization_Penalty_Neutral>  (1) 
  0.0000

>  <r_epik_State_Penalty>  (1) 
 -0.0000

>  <r_epik_Charging_Adjusted_Penalty>  (1) 
0.000851558

>  <i_epik_Tot_Q>  (1) 
0

>  <i_epik_Tot_abs_Q>  (1) 
0

>  <s_lp_Force_Field>  (1) 
S-OPLS

>  <r_lp_Energy>  (1) 
45.384

>  <b_lp_Chiralities_Consistent>  (1) 
1

>  <s_lp_Variant>  (1) 
lig_CHEMBL3265032-1

>  <s_i_glide_gridfile>  (1) 
glide-grid_SYK-4PV0

>  <i_i_glide_lignum>  (1) 
40

>  <i_i_glide_rotatable_bonds>  (1) 
4

>  <r_i_docking_score>  (1) 
-7.77591805549971

>  <r_i_glide_ligand_efficiency>  (1) 
-0.250836066306442

>  <r_i_glide_ligand_efficiency_sa>  (1) 
-0.78797156471506

>  <r_i_glide_ligand_efficiency_ln>  (1) 
-1.75370782478444

>  <r_i_glide_gscore>  (1) 
-7.77591805549971

>  <r_i_glide_lipo>  (1) 
-2.71892195211467

>  <r_i_glide_hbond>  (1) 
-0.268577493554708

>  <r_i_glide_metal>  (1) 
-0

>  <r_i_glide_rewards>  (1) 
-2.01678245216176

>  <r_i_glide_evdw>  (1) 
-47.6092338562012

>  <r_i_glide_ecoul>  (1) 
-5.38234233856201

>  <r_i_glide_erotb>  (1) 
0.465680891425366

>  <r_i_glide_esite>  (1) 
-0.0495040054995753

>  <r_i_glide_emodel>  (1) 
-76.1644710501725

>  <r_i_glide_energy>  (1) 
-52.9915761947632

>  <r_i_glide_einternal>  (1) 
2.34593868255615

>  <i_i_glide_confnum>  (1) 
15

>  <i_i_glide_posenum>  (1) 
15

>  <r_i_glide_eff_state_penalty>  (1) 
-0

>  <r_i_glide_rmsd>  (1) 
0.0972668084669132

>  <s_glide_core_constrain_type>  (1) 
snapped_core_restrain

$$$$
