lig_CHEMBL3265014
     RDKit          3D

 31 34  0  0  1  0  0  0  0  0999 V2000
    5.6605   -0.4849   16.4279 C   0  0  0  0  0  0  0  0  0  0  0  0
    5.9027    0.4171   15.4307 C   0  0  0  0  0  0  0  0  0  0  0  0
    4.7376    0.5059   14.6944 N   0  0  0  0  0  0  0  0  0  0  0  0
    3.8251   -0.4062   15.2666 C   0  0  0  0  0  0  0  0  0  0  0  0
    4.3902   -1.0322   16.2993 N   0  0  0  0  0  0  0  0  0  0  0  0
    2.5310   -0.4740   14.6739 C   0  0  0  0  0  0  0  0  0  0  0  0
    1.6193   -1.3836   15.2425 N   0  0  0  0  0  0  0  0  0  0  0  0
    0.2457   -1.6184   15.0494 C   0  0  0  0  0  0  0  0  0  0  0  0
   -0.3312   -2.6706   15.7926 C   0  0  0  0  0  0  0  0  0  0  0  0
   -1.7032   -2.9596   15.6855 C   0  0  0  0  0  0  0  0  0  0  0  0
   -2.5204   -2.2019   14.8257 C   0  0  0  0  0  0  0  0  0  0  0  0
   -3.8579   -2.4839   14.7369 O   0  0  0  0  0  0  0  0  0  0  0  0
   -4.1937   -3.2465   13.5899 C   0  0  0  0  0  0  0  0  0  0  0  0
   -1.9716   -1.1402   14.0774 C   0  0  0  0  0  0  0  0  0  0  0  0
   -2.8352   -0.4218   13.2773 O   0  0  0  0  0  0  0  0  0  0  0  0
   -2.2775    0.5875   12.4530 C   0  0  0  0  0  0  0  0  0  0  0  0
   -0.5867   -0.8603   14.1943 C   0  0  0  0  0  0  0  0  0  0  0  0
    2.2004    0.2851   13.6673 N   0  0  0  0  0  0  0  0  0  0  0  0
    3.1138    1.1880   13.1665 C   0  0  0  0  0  0  0  0  0  0  0  0
    2.6431    2.0785   12.0885 C   0  0  0  0  0  0  0  0  0  0  0  0
    3.5378    2.5232   11.0921 C   0  0  0  0  0  0  0  0  0  0  0  0
    3.1249    3.4291   10.1040 C   0  0  0  0  0  0  0  0  0  0  0  0
    1.8045    3.9211   10.0819 C   0  0  0  0  0  0  0  0  0  0  0  0
    1.4631    4.9831    9.0677 C   0  0  0  0  0  0  0  0  0  0  0  0
    2.3279    5.7370    8.6287 O   0  0  0  0  0  0  0  0  0  0  0  0
    0.2064    5.0284    8.6272 N   0  0  0  0  0  0  0  0  0  0  0  0
    0.8789    3.4732   11.0663 C   0  0  0  0  0  0  0  0  0  0  0  0
   -0.4005    3.9972   11.0275 O   0  0  0  0  0  0  0  0  0  0  0  0
   -1.2626    3.9423   12.1562 C   0  0  0  0  0  0  0  0  0  0  0  0
    1.3092    2.5431   12.0476 C   0  0  0  0  0  0  0  0  0  0  0  0
    4.3952    1.2919   13.6482 C   0  0  0  0  0  0  0  0  0  0  0  0
  1  5  1  0
  1  2  2  0
  2  3  1  0
  3 31  1  0
  3  4  1  0
  4  5  2  0
  4  6  1  0
  6  7  1  0
  6 18  2  0
  7  8  1  0
  8 17  1  0
  8  9  2  0
  9 10  1  0
 10 11  2  0
 11 12  1  0
 11 14  1  0
 12 13  1  0
 14 15  1  0
 14 17  2  0
 15 16  1  0
 18 19  1  0
 19 20  1  0
 19 31  2  0
 20 30  1  0
 20 21  2  0
 21 22  1  0
 22 23  2  0
 23 24  1  0
 23 27  1  0
 24 25  2  0
 24 26  1  0
 27 28  1  0
 27 30  2  0
 28 29  1  0
M  END
>  <s_m_source_file>  (1) 
ligprep_syk.smi

>  <i_m_source_file_index>  (1) 
21

>  <i_lp_mmshare_version>  (1) 
53161

>  <i_f3d_flags>  (1) 
0

>  <s_epik_input>  (1) 
W0NIM11PYyhbY0hdMSljKE9bQ0gzXSlbY0hdW2NIXWMxW05IXWMoYyhuMjMpbltjSF1bY0hdMiluYyhbY0hdMyktYzRbY0hdW2NIXWMoQyg9TylbTkgyXSljKFtjSF00KU9bQ0gzXQ==

>  <s_epik_cmdline>  (1) 
J2VwaWtfcHl0aG9uJywgJy1waHQnLCAnMC4wJywgJy1waCcsICc3LjQnLCAnLXRuJywgJzgnLCAnLW1hJywgJzUwMCcsICctaW1hZScsICc8aW5maWxlLm1hZT4nLCAnLW9tYWUnLCAnPG91dGZpbGUubWFlPic=

>  <r_lp_tautomer_probability>  (1) 
1

>  <r_epik_Ionization_Penalty>  (1) 
  0.0009

>  <r_epik_Ionization_Penalty_Charging>  (1) 
  0.0009

>  <r_epik_Ionization_Penalty_Neutral>  (1) 
  0.0000

>  <r_epik_State_Penalty>  (1) 
 -0.0000

>  <r_epik_Charging_Adjusted_Penalty>  (1) 
0.000851558

>  <i_epik_Tot_Q>  (1) 
0

>  <i_epik_Tot_abs_Q>  (1) 
0

>  <s_lp_Force_Field>  (1) 
S-OPLS

>  <r_lp_Energy>  (1) 
46.0622

>  <b_lp_Chiralities_Consistent>  (1) 
1

>  <s_lp_Variant>  (1) 
lig_CHEMBL3265014-1

>  <s_i_glide_gridfile>  (1) 
glide-grid_SYK-4PV0

>  <i_i_glide_lignum>  (1) 
21

>  <i_i_glide_rotatable_bonds>  (1) 
7

>  <r_i_docking_score>  (1) 
-7.49377597663144

>  <r_i_glide_ligand_efficiency>  (1) 
-0.241734708923595

>  <r_i_glide_ligand_efficiency_sa>  (1) 
-0.759380736754812

>  <r_i_glide_ligand_efficiency_ln>  (1) 
-1.69007613938335

>  <r_i_glide_gscore>  (1) 
-7.49377597663144

>  <r_i_glide_lipo>  (1) 
-2.5324168932385

>  <r_i_glide_hbond>  (1) 
-0.327512976268538

>  <r_i_glide_metal>  (1) 
-0

>  <r_i_glide_rewards>  (1) 
-2.13029553940425

>  <r_i_glide_evdw>  (1) 
-47.4771385192871

>  <r_i_glide_ecoul>  (1) 
-6.11246061325073

>  <r_i_glide_erotb>  (1) 
0.787175450231808

>  <r_i_glide_esite>  (1) 
0

>  <r_i_glide_emodel>  (1) 
-75.2834212162278

>  <r_i_glide_energy>  (1) 
-53.5895991325378

>  <r_i_glide_einternal>  (1) 
1.20184826850891

>  <i_i_glide_confnum>  (1) 
7

>  <i_i_glide_posenum>  (1) 
1

>  <r_i_glide_eff_state_penalty>  (1) 
-0

>  <r_i_glide_rmsd>  (1) 
0.0914175880561776

>  <s_glide_core_constrain_type>  (1) 
snapped_core_restrain

$$$$
