lig_CHEMBL3265011
     RDKit          3D

 30 33  0  0  1  0  0  0  0  0999 V2000
    5.6044   -0.5660   16.4920 C   0  0  0  0  0  0  0  0  0  0  0  0
    5.8558    0.3978   15.5613 C   0  0  0  0  0  0  0  0  0  0  0  0
    4.7071    0.5172   14.8011 N   0  0  0  0  0  0  0  0  0  0  0  0
    3.7922   -0.4373   15.2896 C   0  0  0  0  0  0  0  0  0  0  0  0
    4.3348   -1.1208   16.3016 N   0  0  0  0  0  0  0  0  0  0  0  0
    2.5191   -0.4699   14.6603 C   0  0  0  0  0  0  0  0  0  0  0  0
    1.5902   -1.3835   15.1930 N   0  0  0  0  0  0  0  0  0  0  0  0
    0.2120   -1.5743   14.9972 C   0  0  0  0  0  0  0  0  0  0  0  0
   -0.3914   -2.6021   15.7558 C   0  0  0  0  0  0  0  0  0  0  0  0
   -1.7698   -2.8569   15.6442 C   0  0  0  0  0  0  0  0  0  0  0  0
   -2.5632   -2.0914   14.7714 C   0  0  0  0  0  0  0  0  0  0  0  0
   -3.9054   -2.3525   14.6831 O   0  0  0  0  0  0  0  0  0  0  0  0
   -4.2479   -3.1250   13.5440 C   0  0  0  0  0  0  0  0  0  0  0  0
   -1.9879   -1.0482   14.0116 C   0  0  0  0  0  0  0  0  0  0  0  0
   -2.8274   -0.3152   13.2004 O   0  0  0  0  0  0  0  0  0  0  0  0
   -2.2487    0.6707   12.3592 C   0  0  0  0  0  0  0  0  0  0  0  0
   -0.5943   -0.8021   14.1303 C   0  0  0  0  0  0  0  0  0  0  0  0
    2.2146    0.3278   13.6767 N   0  0  0  0  0  0  0  0  0  0  0  0
    3.1286    1.2742   13.2422 C   0  0  0  0  0  0  0  0  0  0  0  0
    2.6702    2.1743   12.1368 C   0  0  0  0  0  0  0  0  0  0  0  0
    1.3079    2.5610   12.0712 C   0  0  0  0  0  0  0  0  0  0  0  0
    0.8178    3.3700   11.0218 C   0  0  0  0  0  0  0  0  0  0  0  0
   -0.6277    3.7149   10.9041 C   0  0  0  0  0  0  0  0  0  0  0  0
   -1.1770    3.7201    9.8073 O   0  0  0  0  0  0  0  0  0  0  0  0
   -1.2323    4.0844   12.0326 N   0  0  0  0  0  0  0  0  0  0  0  0
    1.6820    3.8193   10.0097 C   0  0  0  0  0  0  0  0  0  0  0  0
    3.0319    3.4835   10.0635 C   0  0  0  0  0  0  0  0  0  0  0  0
    3.5198    2.6762   11.1020 C   0  0  0  0  0  0  0  0  0  0  0  0
    4.9896    2.4009   11.0487 C   0  0  0  0  0  0  0  0  0  0  0  0
    4.3773    1.3716   13.8076 C   0  0  0  0  0  0  0  0  0  0  0  0
  1  5  1  0
  1  2  2  0
  2  3  1  0
  3 30  1  0
  3  4  1  0
  4  5  2  0
  4  6  1  0
  6  7  1  0
  6 18  2  0
  7  8  1  0
  8 17  1  0
  8  9  2  0
  9 10  1  0
 10 11  2  0
 11 12  1  0
 11 14  1  0
 12 13  1  0
 14 15  1  0
 14 17  2  0
 15 16  1  0
 18 19  1  0
 19 20  1  0
 19 30  2  0
 20 28  1  0
 20 21  2  0
 21 22  1  0
 22 23  1  0
 22 26  2  0
 23 24  2  0
 23 25  1  0
 26 27  1  0
 27 28  2  0
 28 29  1  0
M  END
>  <s_m_source_file>  (1) 
ligprep_syk.smi

>  <i_m_source_file_index>  (1) 
18

>  <i_lp_mmshare_version>  (1) 
53161

>  <i_f3d_flags>  (1) 
0

>  <s_epik_input>  (1) 
W0NIM11PYyhbY0hdMSljKE9bQ0gzXSlbY0hdW2NIXWMxW05IXWMoYyhuMjMpbltjSF1bY0hdMiluYyhbY0hdMyktYzRbY0hdYyhDKD1PKVtOSDJdKVtjSF1bY0hdYzRbQ0gzXQ==

>  <s_epik_cmdline>  (1) 
J2VwaWtfcHl0aG9uJywgJy1waHQnLCAnMC4wJywgJy1waCcsICc3LjQnLCAnLXRuJywgJzgnLCAnLW1hJywgJzUwMCcsICctaW1hZScsICc8aW5maWxlLm1hZT4nLCAnLW9tYWUnLCAnPG91dGZpbGUubWFlPic=

>  <r_lp_tautomer_probability>  (1) 
1

>  <r_epik_Ionization_Penalty>  (1) 
  0.0009

>  <r_epik_Ionization_Penalty_Charging>  (1) 
  0.0009

>  <r_epik_Ionization_Penalty_Neutral>  (1) 
  0.0000

>  <r_epik_State_Penalty>  (1) 
 -0.0000

>  <r_epik_Charging_Adjusted_Penalty>  (1) 
0.000851558

>  <i_epik_Tot_Q>  (1) 
0

>  <i_epik_Tot_abs_Q>  (1) 
0

>  <s_lp_Force_Field>  (1) 
S-OPLS

>  <r_lp_Energy>  (1) 
43.0729

>  <b_lp_Chiralities_Consistent>  (1) 
1

>  <s_lp_Variant>  (1) 
lig_CHEMBL3265011-1

>  <s_i_glide_gridfile>  (1) 
glide-grid_SYK-4PV0

>  <i_i_glide_lignum>  (1) 
18

>  <i_i_glide_rotatable_bonds>  (1) 
6

>  <r_i_docking_score>  (1) 
-8.08572945413283

>  <r_i_glide_ligand_efficiency>  (1) 
-0.269524315137761

>  <r_i_glide_ligand_efficiency_sa>  (1) 
-0.83747471219153

>  <r_i_glide_ligand_efficiency_ln>  (1) 
-1.83716583305772

>  <r_i_glide_gscore>  (1) 
-8.08572945413283

>  <r_i_glide_lipo>  (1) 
-2.59094527947847

>  <r_i_glide_hbond>  (1) 
-0.587366052365697

>  <r_i_glide_metal>  (1) 
-0

>  <r_i_glide_rewards>  (1) 
-2.04953049568871

>  <r_i_glide_evdw>  (1) 
-44.6794891357422

>  <r_i_glide_ecoul>  (1) 
-8.71212577819824

>  <r_i_glide_erotb>  (1) 
0.723773380084194

>  <r_i_glide_esite>  (1) 
-0.0408676831673001

>  <r_i_glide_emodel>  (1) 
-88.2756178035779

>  <r_i_glide_energy>  (1) 
-53.3916149139404

>  <r_i_glide_einternal>  (1) 
1.47738958844457e-08

>  <i_i_glide_confnum>  (1) 
1

>  <i_i_glide_posenum>  (1) 
1

>  <r_i_glide_eff_state_penalty>  (1) 
-0

>  <r_i_glide_rmsd>  (1) 
0.0823130935330714

>  <s_glide_core_constrain_type>  (1) 
snapped_core_restrain

$$$$
