lig_CHEMBL3265016
     RDKit          3D

 29 33  0  0  1  0  0  0  0  0999 V2000
    5.6553   -0.4958   16.4422 C   0  0  0  0  0  0  0  0  0  0  0  0
    5.9059    0.4307   15.4722 C   0  0  0  0  0  0  0  0  0  0  0  0
    4.7520    0.5246   14.7257 N   0  0  0  0  0  0  0  0  0  0  0  0
    3.8360   -0.4085   15.2682 C   0  0  0  0  0  0  0  0  0  0  0  0
    4.3908   -1.0488   16.2965 N   0  0  0  0  0  0  0  0  0  0  0  0
    2.5435   -0.4544   14.6677 C   0  0  0  0  0  0  0  0  0  0  0  0
    1.6134   -1.3600   15.2156 N   0  0  0  0  0  0  0  0  0  0  0  0
    0.2337   -1.5602   15.0176 C   0  0  0  0  0  0  0  0  0  0  0  0
   -0.3699   -2.5974   15.7618 C   0  0  0  0  0  0  0  0  0  0  0  0
   -1.7463   -2.8602   15.6445 C   0  0  0  0  0  0  0  0  0  0  0  0
   -2.5447   -2.0874   14.7796 C   0  0  0  0  0  0  0  0  0  0  0  0
   -3.8863   -2.3508   14.6875 O   0  0  0  0  0  0  0  0  0  0  0  0
   -4.2259   -3.1223   13.5464 C   0  0  0  0  0  0  0  0  0  0  0  0
   -1.9711   -1.0357   14.0332 C   0  0  0  0  0  0  0  0  0  0  0  0
   -2.8199   -0.2978   13.2309 O   0  0  0  0  0  0  0  0  0  0  0  0
   -2.2518    0.6720   12.3601 C   0  0  0  0  0  0  0  0  0  0  0  0
   -0.5800   -0.7868   14.1557 C   0  0  0  0  0  0  0  0  0  0  0  0
    2.2276    0.3182   13.6676 N   0  0  0  0  0  0  0  0  0  0  0  0
    3.1489    1.2295   13.1938 C   0  0  0  0  0  0  0  0  0  0  0  0
    2.6895    2.1207   12.1143 C   0  0  0  0  0  0  0  0  0  0  0  0
    3.5879    2.5942   11.1277 C   0  0  0  0  0  0  0  0  0  0  0  0
    3.1535    3.4438   10.0919 C   0  0  0  0  0  0  0  0  0  0  0  0
    1.8032    3.8420    9.9959 C   0  0  0  0  0  0  0  0  0  0  0  0
    0.9139    3.3662   10.9979 C   0  0  0  0  0  0  0  0  0  0  0  0
    1.3429    2.5346   12.0438 C   0  0  0  0  0  0  0  0  0  0  0  0
   -0.3213    3.8861   10.6735 N   0  0  0  0  0  0  0  0  0  0  0  0
   -0.2449    4.6550    9.5237 C   0  0  0  0  0  0  0  0  0  0  0  0
    1.0533    4.6589    9.0855 C   0  0  0  0  0  0  0  0  0  0  0  0
    4.4211    1.3366   13.6971 C   0  0  0  0  0  0  0  0  0  0  0  0
  1  5  1  0
  1  2  2  0
  2  3  1  0
  3 29  1  0
  3  4  1  0
  4  5  2  0
  4  6  1  0
  6  7  1  0
  6 18  2  0
  7  8  1  0
  8 17  1  0
  8  9  2  0
  9 10  1  0
 10 11  2  0
 11 12  1  0
 11 14  1  0
 12 13  1  0
 14 15  1  0
 14 17  2  0
 15 16  1  0
 18 19  1  0
 19 20  1  0
 19 29  2  0
 20 25  1  0
 20 21  2  0
 21 22  1  0
 22 23  2  0
 23 28  1  0
 23 24  1  0
 24 25  2  0
 24 26  1  0
 26 27  1  0
 27 28  2  0
M  END
>  <s_m_source_file>  (1) 
ligprep_syk.smi

>  <i_m_source_file_index>  (1) 
23

>  <i_lp_mmshare_version>  (1) 
53161

>  <i_f3d_flags>  (1) 
0

>  <s_epik_input>  (1) 
W2NIXTFbY0hdW25IXWMoYzEyKVtjSF1jKFtjSF1bY0hdMiktYyhbY0hdMyluYyhjKG4zNCluW2NIXVtjSF00KVtOSF1jNVtjSF1bY0hdYyhPW0NIM10pYyhbY0hdNSlPW0NIM10=

>  <s_epik_cmdline>  (1) 
J2VwaWtfcHl0aG9uJywgJy1waHQnLCAnMC4wJywgJy1waCcsICc3LjQnLCAnLXRuJywgJzgnLCAnLW1hJywgJzUwMCcsICctaW1hZScsICc8aW5maWxlLm1hZT4nLCAnLW9tYWUnLCAnPG91dGZpbGUubWFlPic=

>  <r_lp_tautomer_probability>  (1) 
1

>  <r_epik_Ionization_Penalty>  (1) 
  0.0009

>  <r_epik_Ionization_Penalty_Charging>  (1) 
  0.0009

>  <r_epik_Ionization_Penalty_Neutral>  (1) 
  0.0000

>  <r_epik_State_Penalty>  (1) 
 -0.0000

>  <r_epik_Charging_Adjusted_Penalty>  (1) 
0.000851558

>  <i_epik_Tot_Q>  (1) 
0

>  <i_epik_Tot_abs_Q>  (1) 
0

>  <s_lp_Force_Field>  (1) 
S-OPLS

>  <r_lp_Energy>  (1) 
46.4539

>  <b_lp_Chiralities_Consistent>  (1) 
1

>  <s_lp_Variant>  (1) 
lig_CHEMBL3265016-1

>  <s_i_glide_gridfile>  (1) 
glide-grid_SYK-4PV0

>  <i_i_glide_lignum>  (1) 
23

>  <i_i_glide_rotatable_bonds>  (1) 
5

>  <r_i_docking_score>  (1) 
-7.88630111582243

>  <r_i_glide_ligand_efficiency>  (1) 
-0.27194141778698

>  <r_i_glide_ligand_efficiency_sa>  (1) 
-0.835490192530023

>  <r_i_glide_ligand_efficiency_ln>  (1) 
-1.80576297618173

>  <r_i_glide_gscore>  (1) 
-7.88630111582243

>  <r_i_glide_lipo>  (1) 
-2.83007327863064

>  <r_i_glide_hbond>  (1) 
-0.339486029105072

>  <r_i_glide_metal>  (1) 
-0

>  <r_i_glide_rewards>  (1) 
-2.19377642231089

>  <r_i_glide_evdw>  (1) 
-45.820255279541

>  <r_i_glide_ecoul>  (1) 
-5.89626836776733

>  <r_i_glide_erotb>  (1) 
0.654767457776244

>  <r_i_glide_esite>  (1) 
-0.00227982440992533

>  <r_i_glide_emodel>  (1) 
-82.4701232610873

>  <r_i_glide_energy>  (1) 
-51.7165236473083

>  <r_i_glide_einternal>  (1) 
9.34233952420982e-08

>  <i_i_glide_confnum>  (1) 
2

>  <i_i_glide_posenum>  (1) 
1

>  <r_i_glide_eff_state_penalty>  (1) 
-0

>  <r_i_glide_rmsd>  (1) 
0.063841256882854

>  <s_glide_core_constrain_type>  (1) 
snapped_core_restrain

$$$$
