lig_CHEMBL3265027
     RDKit          3D

 25 29  0  0  1  0  0  0  0  0999 V2000
    1.0004    4.6419    9.1168 C   0  0  0  0  0  0  0  0  0  0  0  0
   -0.2483    4.6829    9.5118 N   0  0  0  0  0  0  0  0  0  0  0  0
   -0.2949    3.9358   10.6453 N   0  0  0  0  0  0  0  0  0  0  0  0
    0.9212    3.3828   10.9995 C   0  0  0  0  0  0  0  0  0  0  0  0
    1.3443    2.5503   12.0471 C   0  0  0  0  0  0  0  0  0  0  0  0
    2.6914    2.1301   12.1089 C   0  0  0  0  0  0  0  0  0  0  0  0
    3.1486    1.2401   13.1930 C   0  0  0  0  0  0  0  0  0  0  0  0
    4.4225    1.3392   13.6917 C   0  0  0  0  0  0  0  0  0  0  0  0
    4.7550    0.5269   14.7194 N   0  0  0  0  0  0  0  0  0  0  0  0
    3.8416   -0.4033   15.2622 C   0  0  0  0  0  0  0  0  0  0  0  0
    4.3977   -1.0503   16.2850 N   0  0  0  0  0  0  0  0  0  0  0  0
    5.6602   -0.4957   16.4371 C   0  0  0  0  0  0  0  0  0  0  0  0
    5.9107    0.4279   15.4642 C   0  0  0  0  0  0  0  0  0  0  0  0
    2.5461   -0.4424   14.6671 C   0  0  0  0  0  0  0  0  0  0  0  0
    1.6166   -1.3306   15.2345 N   0  0  0  0  0  0  0  0  0  0  0  0
    0.2437   -1.5547   15.0192 C   0  0  0  0  0  0  0  0  0  0  0  0
   -0.5810   -0.8103   14.1380 C   0  0  0  0  0  0  0  0  0  0  0  0
   -1.9533   -1.1118   14.0131 C   0  0  0  0  0  0  0  0  0  0  0  0
   -2.5226   -2.1543   14.7699 C   0  0  0  0  0  0  0  0  0  0  0  0
   -1.7122   -2.9028   15.6447 C   0  0  0  0  0  0  0  0  0  0  0  0
   -0.3425   -2.6009   15.7654 C   0  0  0  0  0  0  0  0  0  0  0  0
    2.2245    0.3342   13.6727 N   0  0  0  0  0  0  0  0  0  0  0  0
    3.5897    2.5952   11.1140 C   0  0  0  0  0  0  0  0  0  0  0  0
    3.1555    3.4399   10.0716 C   0  0  0  0  0  0  0  0  0  0  0  0
    1.8064    3.8426    9.9903 C   0  0  0  0  0  0  0  0  0  0  0  0
  1 25  1  0
  1  2  2  0
  2  3  1  0
  3  4  1  0
  4 25  2  0
  4  5  1  0
  5  6  2  0
  6  7  1  0
  6 23  1  0
  7 22  1  0
  7  8  2  0
  8  9  1  0
  9 13  1  0
  9 10  1  0
 10 11  2  0
 10 14  1  0
 11 12  1  0
 12 13  2  0
 14 15  1  0
 14 22  2  0
 15 16  1  0
 16 21  1  0
 16 17  2  0
 17 18  1  0
 18 19  2  0
 19 20  1  0
 20 21  2  0
 23 24  2  0
 24 25  1  0
M  END
>  <s_m_source_file>  (1) 
ligprep_syk.smi

>  <i_m_source_file_index>  (1) 
34

>  <i_lp_mmshare_version>  (1) 
53161

>  <i_f3d_flags>  (1) 
0

>  <s_epik_input>  (1) 
W25IXTFuW2NIXWMoYzEyKVtjSF1bY0hdYyhbY0hdMiktYyhbY0hdMyluYyhjKG4zNCluW2NIXVtjSF00KVtOSF1jNVtjSF1bY0hdW2NIXVtjSF1bY0hdNQ==

>  <s_epik_cmdline>  (1) 
J2VwaWtfcHl0aG9uJywgJy1waHQnLCAnMC4wJywgJy1waCcsICc3LjQnLCAnLXRuJywgJzgnLCAnLW1hJywgJzUwMCcsICctaW1hZScsICc8aW5maWxlLm1hZT4nLCAnLW9tYWUnLCAnPG91dGZpbGUubWFlPic=

>  <r_lp_tautomer_probability>  (1) 
1

>  <r_epik_Ionization_Penalty>  (1) 
  0.0009

>  <r_epik_Ionization_Penalty_Charging>  (1) 
  0.0009

>  <r_epik_Ionization_Penalty_Neutral>  (1) 
  0.0000

>  <r_epik_State_Penalty>  (1) 
 -0.0000

>  <r_epik_Charging_Adjusted_Penalty>  (1) 
0.000851558

>  <i_epik_Tot_Q>  (1) 
0

>  <i_epik_Tot_abs_Q>  (1) 
0

>  <s_lp_Force_Field>  (1) 
S-OPLS

>  <r_lp_Energy>  (1) 
35.4932

>  <b_lp_Chiralities_Consistent>  (1) 
1

>  <s_lp_Variant>  (1) 
lig_CHEMBL3265027-1

>  <s_i_glide_gridfile>  (1) 
glide-grid_SYK-4PV0

>  <i_i_glide_lignum>  (1) 
34

>  <i_i_glide_rotatable_bonds>  (1) 
3

>  <r_i_docking_score>  (1) 
-7.76256019868585

>  <r_i_glide_ligand_efficiency>  (1) 
-0.310502407947434

>  <r_i_glide_ligand_efficiency_sa>  (1) 
-0.90791454762195

>  <r_i_glide_ligand_efficiency_ln>  (1) 
-1.839959392246

>  <r_i_glide_gscore>  (1) 
-7.76256019868585

>  <r_i_glide_lipo>  (1) 
-2.70724897570015

>  <r_i_glide_hbond>  (1) 
-0.280092066482715

>  <r_i_glide_metal>  (1) 
-0

>  <r_i_glide_rewards>  (1) 
-2.59709777423565

>  <r_i_glide_evdw>  (1) 
-41.0907287597656

>  <r_i_glide_ecoul>  (1) 
-4.3358588218689

>  <r_i_glide_erotb>  (1) 
0.52823418889219

>  <r_i_glide_esite>  (1) 
-0.00144030989090241

>  <r_i_glide_emodel>  (1) 
-68.5138945949226

>  <r_i_glide_energy>  (1) 
-45.4265875816345

>  <r_i_glide_einternal>  (1) 
-2.16398035490784e-07

>  <i_i_glide_confnum>  (1) 
2

>  <i_i_glide_posenum>  (1) 
3

>  <r_i_glide_eff_state_penalty>  (1) 
-0

>  <r_i_glide_rmsd>  (1) 
0.0657754082477853

>  <s_glide_core_constrain_type>  (1) 
snapped_core_restrain

$$$$
