lig_CHEMBL3265002
     RDKit          3D

 40 45  0  0  1  0  0  0  0  0999 V2000
   -8.3252    6.9433   13.4177 C   0  0  0  0  0  0  0  0  0  0  0  0
   -8.7716    6.1092   12.4220 C   0  0  0  0  0  0  0  0  0  0  0  0
   -7.6366    5.4798   11.9419 N   0  0  0  0  0  0  0  0  0  0  0  0
   -6.5741    5.9199   12.6307 C   0  0  0  0  0  0  0  0  0  0  0  0
   -5.2017    5.4605   12.4419 C   0  0  0  0  0  0  0  0  0  0  0  0
   -4.1717    5.8949   13.3053 C   0  0  0  0  0  0  0  0  0  0  0  0
   -2.8501    5.4448   13.1216 C   0  0  0  0  0  0  0  0  0  0  0  0
   -2.5359    4.5491   12.0814 C   0  0  0  0  0  0  0  0  0  0  0  0
   -1.1826    4.1348   11.9471 N   0  0  0  0  0  0  0  0  0  0  0  0
   -0.5604    3.7156   10.8278 C   0  0  0  0  0  0  0  0  0  0  0  0
   -1.0867    3.6405    9.7172 O   0  0  0  0  0  0  0  0  0  0  0  0
    0.8897    3.3772   10.9789 C   0  0  0  0  0  0  0  0  0  0  0  0
    1.8095    3.8059   10.0020 C   0  0  0  0  0  0  0  0  0  0  0  0
    3.1624    3.4365   10.0905 C   0  0  0  0  0  0  0  0  0  0  0  0
    3.5940    2.6095   11.1436 C   0  0  0  0  0  0  0  0  0  0  0  0
    2.6873    2.1505   12.1273 C   0  0  0  0  0  0  0  0  0  0  0  0
    3.1433    1.2592   13.2096 C   0  0  0  0  0  0  0  0  0  0  0  0
    4.4216    1.3430   13.6989 C   0  0  0  0  0  0  0  0  0  0  0  0
    4.7497    0.5228   14.7228 N   0  0  0  0  0  0  0  0  0  0  0  0
    3.8342   -0.4039   15.2652 C   0  0  0  0  0  0  0  0  0  0  0  0
    4.3880   -1.0491   16.2893 N   0  0  0  0  0  0  0  0  0  0  0  0
    5.6535   -0.4977   16.4371 C   0  0  0  0  0  0  0  0  0  0  0  0
    5.9087    0.4208   15.4604 C   0  0  0  0  0  0  0  0  0  0  0  0
    2.5396   -0.4404   14.6730 C   0  0  0  0  0  0  0  0  0  0  0  0
    1.6086   -1.3438   15.2171 N   0  0  0  0  0  0  0  0  0  0  0  0
    0.2307   -1.5456   15.0161 C   0  0  0  0  0  0  0  0  0  0  0  0
   -0.3675   -2.5762   15.7697 C   0  0  0  0  0  0  0  0  0  0  0  0
   -1.7428   -2.8440   15.6540 C   0  0  0  0  0  0  0  0  0  0  0  0
   -2.5447   -2.0885   14.7814 C   0  0  0  0  0  0  0  0  0  0  0  0
   -3.8830   -2.3644   14.6902 O   0  0  0  0  0  0  0  0  0  0  0  0
   -4.2212   -3.1267   13.5427 C   0  0  0  0  0  0  0  0  0  0  0  0
   -1.9766   -1.0421   14.0268 C   0  0  0  0  0  0  0  0  0  0  0  0
   -2.8303   -0.3149   13.2195 O   0  0  0  0  0  0  0  0  0  0  0  0
   -2.2671    0.6676   12.3646 C   0  0  0  0  0  0  0  0  0  0  0  0
   -0.5858   -0.7819   14.1459 C   0  0  0  0  0  0  0  0  0  0  0  0
    2.2187    0.3535   13.6886 N   0  0  0  0  0  0  0  0  0  0  0  0
    1.3364    2.5630   12.0418 C   0  0  0  0  0  0  0  0  0  0  0  0
   -3.5745    4.0821   11.2419 C   0  0  0  0  0  0  0  0  0  0  0  0
   -4.8925    4.5443   11.4127 C   0  0  0  0  0  0  0  0  0  0  0  0
   -6.9450    6.8217   13.5366 N   0  0  0  0  0  0  0  0  0  0  0  0
  1 40  1  0
  1  2  2  0
  2  3  1  0
  3  4  1  0
  4  5  1  0
  4 40  2  0
  5 39  1  0
  5  6  2  0
  6  7  1  0
  7  8  2  0
  8  9  1  0
  8 38  1  0
  9 10  1  0
 10 11  2  0
 10 12  1  0
 12 37  1  0
 12 13  2  0
 13 14  1  0
 14 15  2  0
 15 16  1  0
 16 17  1  0
 16 37  2  0
 17 36  1  0
 17 18  2  0
 18 19  1  0
 19 23  1  0
 19 20  1  0
 20 21  2  0
 20 24  1  0
 21 22  1  0
 22 23  2  0
 24 25  1  0
 24 36  2  0
 25 26  1  0
 26 35  1  0
 26 27  2  0
 27 28  1  0
 28 29  2  0
 29 30  1  0
 29 32  1  0
 30 31  1  0
 32 33  1  0
 32 35  2  0
 33 34  1  0
 38 39  2  0
M  END
>  <s_m_source_file>  (1) 
ligprep_syk.smi

>  <i_m_source_file_index>  (1) 
10

>  <i_lp_mmshare_version>  (1) 
53161

>  <i_f3d_flags>  (1) 
0

>  <s_epik_input>  (1) 
bjFbY0hdW2NIXVtuSF1jMS1jMltjSF1bY0hdYyhbY0hdW2NIXTIpW05IXUMoPU8pYzNbY0hdW2NIXVtjSF1jKFtjSF0zKS1jKFtjSF00KW5jKGMobjQ1KW5bY0hdW2NIXTUpW05IXWM2W2NIXVtjSF1jKE9bQ0gzXSljKFtjSF02KU9bQ0gzXQ==

>  <s_epik_cmdline>  (1) 
J2VwaWtfcHl0aG9uJywgJy1waHQnLCAnMC4wJywgJy1waCcsICc3LjQnLCAnLXRuJywgJzgnLCAnLW1hJywgJzUwMCcsICctaW1hZScsICc8aW5maWxlLm1hZT4nLCAnLW9tYWUnLCAnPG91dGZpbGUubWFlPic=

>  <r_lp_tautomer_probability>  (1) 
0.5

>  <r_epik_Ionization_Penalty>  (1) 
  0.0322

>  <r_epik_Ionization_Penalty_Charging>  (1) 
  0.0322

>  <r_epik_Ionization_Penalty_Neutral>  (1) 
  0.0000

>  <r_epik_State_Penalty>  (1) 
  0.0259

>  <r_epik_Charging_Adjusted_Penalty>  (1) 
0.0580992

>  <i_epik_Tot_Q>  (1) 
0

>  <i_epik_Tot_abs_Q>  (1) 
0

>  <s_lp_Force_Field>  (1) 
S-OPLS

>  <r_lp_Energy>  (1) 
62.7048

>  <b_lp_Chiralities_Consistent>  (1) 
1

>  <s_lp_Variant>  (1) 
lig_CHEMBL3265002-1

>  <s_i_glide_gridfile>  (1) 
glide-grid_SYK-4PV0

>  <i_i_glide_lignum>  (1) 
10

>  <i_i_glide_rotatable_bonds>  (1) 
9

>  <r_i_docking_score>  (1) 
-9.13510362472704

>  <r_i_glide_ligand_efficiency>  (1) 
-0.228377590618176

>  <r_i_glide_ligand_efficiency_sa>  (1) 
-0.781040372473729

>  <r_i_glide_ligand_efficiency_ln>  (1) 
-1.94824876905549

>  <r_i_glide_gscore>  (1) 
-9.16100362472704

>  <r_i_glide_lipo>  (1) 
-2.91110594753564

>  <r_i_glide_hbond>  (1) 
-0.818267522530715

>  <r_i_glide_metal>  (1) 
-0

>  <r_i_glide_rewards>  (1) 
-1.51092634195354

>  <r_i_glide_evdw>  (1) 
-56.7386627197266

>  <r_i_glide_ecoul>  (1) 
-11.3589553833008

>  <r_i_glide_erotb>  (1) 
0.656802449102929

>  <r_i_glide_esite>  (1) 
-0.0367298183286232

>  <r_i_glide_emodel>  (1) 
-104.243702642037

>  <r_i_glide_energy>  (1) 
-68.0976181030273

>  <r_i_glide_einternal>  (1) 
0.0101146679371595

>  <i_i_glide_confnum>  (1) 
3

>  <i_i_glide_posenum>  (1) 
2

>  <r_i_glide_eff_state_penalty>  (1) 
0.0259

>  <r_i_glide_rmsd>  (1) 
0.0694653728064007

>  <s_glide_core_constrain_type>  (1) 
snapped_core_restrain

$$$$
