lig_CHEMBL3265013
     RDKit          3D

 30 33  0  0  1  0  0  0  0  0999 V2000
    5.6693   -0.4998   16.4344 C   0  0  0  0  0  0  0  0  0  0  0  0
    5.9320    0.3959   15.4325 C   0  0  0  0  0  0  0  0  0  0  0  0
    4.7725    0.5065   14.6929 N   0  0  0  0  0  0  0  0  0  0  0  0
    3.8474   -0.4021   15.2564 C   0  0  0  0  0  0  0  0  0  0  0  0
    4.3956   -1.0358   16.2872 N   0  0  0  0  0  0  0  0  0  0  0  0
    2.5511   -0.4404   14.6583 C   0  0  0  0  0  0  0  0  0  0  0  0
    1.6253   -1.3555   15.2003 N   0  0  0  0  0  0  0  0  0  0  0  0
    0.2464   -1.5653   15.0063 C   0  0  0  0  0  0  0  0  0  0  0  0
   -0.3434   -2.6070   15.7469 C   0  0  0  0  0  0  0  0  0  0  0  0
   -1.7204   -2.8857   15.6307 C   0  0  0  0  0  0  0  0  0  0  0  0
   -2.5238   -2.1343   14.7603 C   0  0  0  0  0  0  0  0  0  0  0  0
   -3.8614   -2.4163   14.6631 O   0  0  0  0  0  0  0  0  0  0  0  0
   -4.1982   -3.1658   13.5016 C   0  0  0  0  0  0  0  0  0  0  0  0
   -1.9579   -1.0759   14.0130 C   0  0  0  0  0  0  0  0  0  0  0  0
   -2.8124   -0.3553   13.2017 O   0  0  0  0  0  0  0  0  0  0  0  0
   -2.2570    0.6486   12.3655 C   0  0  0  0  0  0  0  0  0  0  0  0
   -0.5716   -0.8021   14.1429 C   0  0  0  0  0  0  0  0  0  0  0  0
    2.2376    0.3420   13.6645 N   0  0  0  0  0  0  0  0  0  0  0  0
    3.1644    1.2378   13.1744 C   0  0  0  0  0  0  0  0  0  0  0  0
    2.6818    2.1497   12.1038 C   0  0  0  0  0  0  0  0  0  0  0  0
    3.5740    2.7003   11.1524 C   0  0  0  0  0  0  0  0  0  0  0  0
    3.1181    3.5658   10.1378 C   0  0  0  0  0  0  0  0  0  0  0  0
    1.7585    3.9208   10.0575 C   0  0  0  0  0  0  0  0  0  0  0  0
    1.2922    4.8508    8.9748 C   0  0  0  0  0  0  0  0  0  0  0  0
    0.3301    4.5844    8.2473 O   0  0  0  0  0  0  0  0  0  0  0  0
    1.9783    5.9936    8.8669 N   0  0  0  0  0  0  0  0  0  0  0  0
    0.8472    3.3683   10.9879 C   0  0  0  0  0  0  0  0  0  0  0  0
   -0.6318    3.7218   10.9512 C   0  0  0  0  0  0  0  0  0  0  0  0
    1.3185    2.5094   12.0019 C   0  0  0  0  0  0  0  0  0  0  0  0
    4.4480    1.3066   13.6557 C   0  0  0  0  0  0  0  0  0  0  0  0
  1  5  1  0
  1  2  2  0
  2  3  1  0
  3 30  1  0
  3  4  1  0
  4  5  2  0
  4  6  1  0
  6  7  1  0
  6 18  2  0
  7  8  1  0
  8 17  1  0
  8  9  2  0
  9 10  1  0
 10 11  2  0
 11 12  1  0
 11 14  1  0
 12 13  1  0
 14 15  1  0
 14 17  2  0
 15 16  1  0
 18 19  1  0
 19 20  1  0
 19 30  2  0
 20 29  1  0
 20 21  2  0
 21 22  1  0
 22 23  2  0
 23 24  1  0
 23 27  1  0
 24 25  2  0
 24 26  1  0
 27 28  1  0
 27 29  2  0
M  END
>  <s_m_source_file>  (1) 
ligprep_syk.smi

>  <i_m_source_file_index>  (1) 
20

>  <i_lp_mmshare_version>  (1) 
53161

>  <i_f3d_flags>  (1) 
0

>  <s_epik_input>  (1) 
Tz1DKFtOSDJdKWMoYyhbQ0gzXSlbY0hdMSlbY0hdW2NIXWMxLWMoW2NIXTIpbmMoYyhuMjMpbltjSF1bY0hdMylbTkhdYzRbY0hdW2NIXWMoT1tDSDNdKWMoW2NIXTQpT1tDSDNd

>  <s_epik_cmdline>  (1) 
J2VwaWtfcHl0aG9uJywgJy1waHQnLCAnMC4wJywgJy1waCcsICc3LjQnLCAnLXRuJywgJzgnLCAnLW1hJywgJzUwMCcsICctaW1hZScsICc8aW5maWxlLm1hZT4nLCAnLW9tYWUnLCAnPG91dGZpbGUubWFlPic=

>  <r_lp_tautomer_probability>  (1) 
1

>  <r_epik_Ionization_Penalty>  (1) 
  0.0012

>  <r_epik_Ionization_Penalty_Charging>  (1) 
  0.0012

>  <r_epik_Ionization_Penalty_Neutral>  (1) 
  0.0000

>  <r_epik_State_Penalty>  (1) 
 -0.0000

>  <r_epik_Charging_Adjusted_Penalty>  (1) 
0.00122647

>  <i_epik_Tot_Q>  (1) 
0

>  <i_epik_Tot_abs_Q>  (1) 
0

>  <s_lp_Force_Field>  (1) 
S-OPLS

>  <r_lp_Energy>  (1) 
40.7686

>  <b_lp_Chiralities_Consistent>  (1) 
1

>  <s_lp_Variant>  (1) 
lig_CHEMBL3265013-1

>  <s_i_glide_gridfile>  (1) 
glide-grid_SYK-4PV0

>  <i_i_glide_lignum>  (1) 
20

>  <i_i_glide_rotatable_bonds>  (1) 
6

>  <r_i_docking_score>  (1) 
-7.57438887725643

>  <r_i_glide_ligand_efficiency>  (1) 
-0.252479629241881

>  <r_i_glide_ligand_efficiency_sa>  (1) 
-0.784512910182123

>  <r_i_glide_ligand_efficiency_ln>  (1) 
-1.72098368248958

>  <r_i_glide_gscore>  (1) 
-7.57438887725643

>  <r_i_glide_lipo>  (1) 
-2.58243156981629

>  <r_i_glide_hbond>  (1) 
-0.316121458322787

>  <r_i_glide_metal>  (1) 
-0

>  <r_i_glide_rewards>  (1) 
-2.26756660663532

>  <r_i_glide_evdw>  (1) 
-45.0850448608398

>  <r_i_glide_ecoul>  (1) 
-5.85193586349487

>  <r_i_glide_erotb>  (1) 
0.723773380084194

>  <r_i_glide_esite>  (1) 
0

>  <r_i_glide_emodel>  (1) 
-72.8392442662837

>  <r_i_glide_energy>  (1) 
-50.9369807243347

>  <r_i_glide_einternal>  (1) 
0.316712290048599

>  <i_i_glide_confnum>  (1) 
4

>  <i_i_glide_posenum>  (1) 
1

>  <r_i_glide_eff_state_penalty>  (1) 
-0

>  <r_i_glide_rmsd>  (1) 
0.0819207660282542

>  <s_glide_core_constrain_type>  (1) 
snapped_core_restrain

$$$$
