lig_CHEMBL3265005
     RDKit          3D

 29 32  0  0  1  0  0  0  0  0999 V2000
    5.6491   -0.4940   16.4472 C   0  0  0  0  0  0  0  0  0  0  0  0
    5.9065    0.4213   15.4682 C   0  0  0  0  0  0  0  0  0  0  0  0
    4.7525    0.5205   14.7206 N   0  0  0  0  0  0  0  0  0  0  0  0
    3.8328   -0.4043   15.2669 C   0  0  0  0  0  0  0  0  0  0  0  0
    4.3814   -1.0442   16.3000 N   0  0  0  0  0  0  0  0  0  0  0  0
    2.5405   -0.4491   14.6655 C   0  0  0  0  0  0  0  0  0  0  0  0
    1.6120   -1.3564   15.2116 N   0  0  0  0  0  0  0  0  0  0  0  0
    0.2348   -1.5699   15.0090 C   0  0  0  0  0  0  0  0  0  0  0  0
   -0.3623   -2.6025   15.7627 C   0  0  0  0  0  0  0  0  0  0  0  0
   -1.7395   -2.8649   15.6543 C   0  0  0  0  0  0  0  0  0  0  0  0
   -2.5406   -2.1038   14.7809 C   0  0  0  0  0  0  0  0  0  0  0  0
   -3.8823   -2.3696   14.6982 O   0  0  0  0  0  0  0  0  0  0  0  0
   -4.2322   -3.1281   13.5523 C   0  0  0  0  0  0  0  0  0  0  0  0
   -1.9717   -1.0564   14.0239 C   0  0  0  0  0  0  0  0  0  0  0  0
   -2.8191   -0.3216   13.2193 O   0  0  0  0  0  0  0  0  0  0  0  0
   -2.2386    0.6604   12.3730 C   0  0  0  0  0  0  0  0  0  0  0  0
   -0.5807   -0.8022   14.1425 C   0  0  0  0  0  0  0  0  0  0  0  0
    2.2222    0.3384   13.6777 N   0  0  0  0  0  0  0  0  0  0  0  0
    3.1457    1.2461   13.2020 C   0  0  0  0  0  0  0  0  0  0  0  0
    2.6823    2.1399   12.1242 C   0  0  0  0  0  0  0  0  0  0  0  0
    3.5830    2.6072   11.1379 C   0  0  0  0  0  0  0  0  0  0  0  0
    3.1397    3.4322   10.0882 C   0  0  0  0  0  0  0  0  0  0  0  0
    1.7837    3.8001   10.0092 C   0  0  0  0  0  0  0  0  0  0  0  0
    0.8734    3.3730   10.9984 C   0  0  0  0  0  0  0  0  0  0  0  0
   -0.5747    3.7372   10.8865 C   0  0  0  0  0  0  0  0  0  0  0  0
   -1.1606    3.7080    9.8070 O   0  0  0  0  0  0  0  0  0  0  0  0
   -1.1653    4.1209   12.0176 N   0  0  0  0  0  0  0  0  0  0  0  0
    1.3299    2.5485   12.0505 C   0  0  0  0  0  0  0  0  0  0  0  0
    4.4276    1.3304   13.6874 C   0  0  0  0  0  0  0  0  0  0  0  0
  1  5  1  0
  1  2  2  0
  2  3  1  0
  3 29  1  0
  3  4  1  0
  4  5  2  0
  4  6  1  0
  6  7  1  0
  6 18  2  0
  7  8  1  0
  8 17  1  0
  8  9  2  0
  9 10  1  0
 10 11  2  0
 11 12  1  0
 11 14  1  0
 12 13  1  0
 14 15  1  0
 14 17  2  0
 15 16  1  0
 18 19  1  0
 19 20  1  0
 19 29  2  0
 20 28  1  0
 20 21  2  0
 21 22  1  0
 22 23  2  0
 23 24  1  0
 24 25  1  0
 24 28  2  0
 25 26  2  0
 25 27  1  0
M  END
>  <s_m_source_file>  (1) 
ligprep_syk.smi

>  <i_m_source_file_index>  (1) 
13

>  <i_lp_mmshare_version>  (1) 
53161

>  <i_f3d_flags>  (1) 
0

>  <s_epik_input>  (1) 
W0NIM11PYyhbY0hdMSljKE9bQ0gzXSlbY0hdW2NIXWMxW05IXWMoYyhuMjMpbltjSF1bY0hdMiluYyhbY0hdMyktYzRbY0hdW2NIXVtjSF1jKFtjSF00KUMoPU8pW05IMl0=

>  <s_epik_cmdline>  (1) 
J2VwaWtfcHl0aG9uJywgJy1waHQnLCAnMC4wJywgJy1waCcsICc3LjQnLCAnLXRuJywgJzgnLCAnLW1hJywgJzUwMCcsICctaW1hZScsICc8aW5maWxlLm1hZT4nLCAnLW9tYWUnLCAnPG91dGZpbGUubWFlPic=

>  <r_lp_tautomer_probability>  (1) 
1

>  <r_epik_Ionization_Penalty>  (1) 
  0.0009

>  <r_epik_Ionization_Penalty_Charging>  (1) 
  0.0009

>  <r_epik_Ionization_Penalty_Neutral>  (1) 
  0.0000

>  <r_epik_State_Penalty>  (1) 
 -0.0000

>  <r_epik_Charging_Adjusted_Penalty>  (1) 
0.000851558

>  <i_epik_Tot_Q>  (1) 
0

>  <i_epik_Tot_abs_Q>  (1) 
0

>  <s_lp_Force_Field>  (1) 
S-OPLS

>  <r_lp_Energy>  (1) 
41.6209

>  <b_lp_Chiralities_Consistent>  (1) 
1

>  <s_lp_Variant>  (1) 
lig_CHEMBL3265005-1

>  <s_i_glide_gridfile>  (1) 
glide-grid_SYK-4PV0

>  <i_i_glide_lignum>  (1) 
13

>  <i_i_glide_rotatable_bonds>  (1) 
6

>  <r_i_docking_score>  (1) 
-8.25702727484937

>  <r_i_glide_ligand_efficiency>  (1) 
-0.284725078443082

>  <r_i_glide_ligand_efficiency_sa>  (1) 
-0.874765648213537

>  <r_i_glide_ligand_efficiency_ln>  (1) 
-1.89064986579463

>  <r_i_glide_gscore>  (1) 
-8.25702727484937

>  <r_i_glide_lipo>  (1) 
-2.58560244091705

>  <r_i_glide_hbond>  (1) 
-0.596671679267303

>  <r_i_glide_metal>  (1) 
-0

>  <r_i_glide_rewards>  (1) 
-2.16590344561742

>  <r_i_glide_evdw>  (1) 
-45.8119316101074

>  <r_i_glide_ecoul>  (1) 
-8.98200225830078

>  <r_i_glide_erotb>  (1) 
0.771334724384616

>  <r_i_glide_esite>  (1) 
-0.0422875141817268

>  <r_i_glide_emodel>  (1) 
-90.3415021695822

>  <r_i_glide_energy>  (1) 
-54.7939338684082

>  <r_i_glide_einternal>  (1) 
2.27629790572337e-08

>  <i_i_glide_confnum>  (1) 
1

>  <i_i_glide_posenum>  (1) 
1

>  <r_i_glide_eff_state_penalty>  (1) 
-0

>  <r_i_glide_rmsd>  (1) 
0.061167689745025

>  <s_glide_core_constrain_type>  (1) 
snapped_core_restrain

$$$$
