lig_CHEMBL3265029
     RDKit          3D

 27 31  0  0  1  0  0  0  0  0999 V2000
    0.9994    4.6452    9.1238 C   0  0  0  0  0  0  0  0  0  0  0  0
   -0.2501    4.6853    9.5199 N   0  0  0  0  0  0  0  0  0  0  0  0
   -0.2937    3.9340   10.6524 N   0  0  0  0  0  0  0  0  0  0  0  0
    0.9222    3.3811   11.0044 C   0  0  0  0  0  0  0  0  0  0  0  0
    1.3466    2.5482   12.0487 C   0  0  0  0  0  0  0  0  0  0  0  0
    2.6942    2.1272   12.1084 C   0  0  0  0  0  0  0  0  0  0  0  0
    3.1524    1.2360   13.1888 C   0  0  0  0  0  0  0  0  0  0  0  0
    4.4270    1.3346   13.6855 C   0  0  0  0  0  0  0  0  0  0  0  0
    4.7580    0.5225   14.7126 N   0  0  0  0  0  0  0  0  0  0  0  0
    3.8409   -0.4055   15.2573 C   0  0  0  0  0  0  0  0  0  0  0  0
    4.3979   -1.0531   16.2813 N   0  0  0  0  0  0  0  0  0  0  0  0
    5.6644   -0.4996   16.4289 C   0  0  0  0  0  0  0  0  0  0  0  0
    5.9170    0.4216   15.4546 C   0  0  0  0  0  0  0  0  0  0  0  0
    2.5456   -0.4464   14.6637 C   0  0  0  0  0  0  0  0  0  0  0  0
    1.6117   -1.3389   15.2205 N   0  0  0  0  0  0  0  0  0  0  0  0
    0.2341   -1.5460   15.0144 C   0  0  0  0  0  0  0  0  0  0  0  0
   -0.3679   -2.5608   15.7928 C   0  0  0  0  0  0  0  0  0  0  0  0
   -1.7437   -2.8382   15.6828 C   0  0  0  0  0  0  0  0  0  0  0  0
   -2.5411   -2.1153   14.7769 C   0  0  0  0  0  0  0  0  0  0  0  0
   -3.8773   -2.3925   14.6754 O   0  0  0  0  0  0  0  0  0  0  0  0
   -4.2176   -3.1060   13.4994 C   0  0  0  0  0  0  0  0  0  0  0  0
   -1.9541   -1.0962   13.9987 C   0  0  0  0  0  0  0  0  0  0  0  0
   -0.5787   -0.8105   14.1169 C   0  0  0  0  0  0  0  0  0  0  0  0
    2.2269    0.3317   13.6684 N   0  0  0  0  0  0  0  0  0  0  0  0
    3.5906    2.5895   11.1140 C   0  0  0  0  0  0  0  0  0  0  0  0
    3.1553    3.4350   10.0721 C   0  0  0  0  0  0  0  0  0  0  0  0
    1.8051    3.8422    9.9936 C   0  0  0  0  0  0  0  0  0  0  0  0
  1 27  1  0
  1  2  2  0
  2  3  1  0
  3  4  1  0
  4 27  2  0
  4  5  1  0
  5  6  2  0
  6  7  1  0
  6 25  1  0
  7 24  1  0
  7  8  2  0
  8  9  1  0
  9 13  1  0
  9 10  1  0
 10 11  2  0
 10 14  1  0
 11 12  1  0
 12 13  2  0
 14 15  1  0
 14 24  2  0
 15 16  1  0
 16 23  1  0
 16 17  2  0
 17 18  1  0
 18 19  2  0
 19 20  1  0
 19 22  1  0
 20 21  1  0
 22 23  2  0
 25 26  2  0
 26 27  1  0
M  END
>  <s_m_source_file>  (1) 
ligprep_syk.smi

>  <i_m_source_file_index>  (1) 
36

>  <i_lp_mmshare_version>  (1) 
53161

>  <i_f3d_flags>  (1) 
0

>  <s_epik_input>  (1) 
W25IXTFuW2NIXWMoYzEyKVtjSF1bY0hdYyhbY0hdMiktYyhbY0hdMyluYyhjKG4zNCluW2NIXVtjSF00KVtOSF1jNVtjSF1bY0hdYyhPW0NIM10pW2NIXVtjSF01

>  <s_epik_cmdline>  (1) 
J2VwaWtfcHl0aG9uJywgJy1waHQnLCAnMC4wJywgJy1waCcsICc3LjQnLCAnLXRuJywgJzgnLCAnLW1hJywgJzUwMCcsICctaW1hZScsICc8aW5maWxlLm1hZT4nLCAnLW9tYWUnLCAnPG91dGZpbGUubWFlPic=

>  <r_lp_tautomer_probability>  (1) 
1

>  <r_epik_Ionization_Penalty>  (1) 
  0.0009

>  <r_epik_Ionization_Penalty_Charging>  (1) 
  0.0009

>  <r_epik_Ionization_Penalty_Neutral>  (1) 
  0.0000

>  <r_epik_State_Penalty>  (1) 
 -0.0000

>  <r_epik_Charging_Adjusted_Penalty>  (1) 
0.000851558

>  <i_epik_Tot_Q>  (1) 
0

>  <i_epik_Tot_abs_Q>  (1) 
0

>  <s_lp_Force_Field>  (1) 
S-OPLS

>  <r_lp_Energy>  (1) 
39.9294

>  <b_lp_Chiralities_Consistent>  (1) 
1

>  <s_lp_Variant>  (1) 
lig_CHEMBL3265029-1

>  <s_i_glide_gridfile>  (1) 
glide-grid_SYK-4PV0

>  <i_i_glide_lignum>  (1) 
36

>  <i_i_glide_rotatable_bonds>  (1) 
4

>  <r_i_docking_score>  (1) 
-5.81054872742608

>  <r_i_glide_ligand_efficiency>  (1) 
-0.215205508423188

>  <r_i_glide_ligand_efficiency_sa>  (1) 
-0.645616524560282

>  <r_i_glide_ligand_efficiency_ln>  (1) 
-1.35259994936228

>  <r_i_glide_gscore>  (1) 
-5.81054872742608

>  <r_i_glide_lipo>  (1) 
-2.73965208028003

>  <r_i_glide_hbond>  (1) 
-0.279398677265339

>  <r_i_glide_metal>  (1) 
-0

>  <r_i_glide_rewards>  (1) 
-0.567316703929821

>  <r_i_glide_evdw>  (1) 
-43.1462745666504

>  <r_i_glide_ecoul>  (1) 
-4.4510760307312

>  <r_i_glide_erotb>  (1) 
0.602538440713608

>  <r_i_glide_esite>  (1) 
-0.00174457372229205

>  <r_i_glide_emodel>  (1) 
-62.3639994281432

>  <r_i_glide_energy>  (1) 
-47.5973505973816

>  <r_i_glide_einternal>  (1) 
2.2810328914602e-07

>  <i_i_glide_confnum>  (1) 
1

>  <i_i_glide_posenum>  (1) 
3

>  <r_i_glide_eff_state_penalty>  (1) 
-0

>  <r_i_glide_rmsd>  (1) 
0.0685577221000829

>  <s_glide_core_constrain_type>  (1) 
snapped_core_restrain

$$$$
