lig_CHEMBL3265019
     RDKit          3D

 29 33  0  0  1  0  0  0  0  0999 V2000
    5.6606   -0.4921   16.4339 C   0  0  0  0  0  0  0  0  0  0  0  0
    5.9104    0.4345   15.4642 C   0  0  0  0  0  0  0  0  0  0  0  0
    4.7524    0.5318   14.7189 N   0  0  0  0  0  0  0  0  0  0  0  0
    3.8404   -0.4067   15.2546 C   0  0  0  0  0  0  0  0  0  0  0  0
    4.3983   -1.0519   16.2795 N   0  0  0  0  0  0  0  0  0  0  0  0
    2.5469   -0.4499   14.6542 C   0  0  0  0  0  0  0  0  0  0  0  0
    1.6169   -1.3546   15.2022 N   0  0  0  0  0  0  0  0  0  0  0  0
    0.2343   -1.5515   15.0124 C   0  0  0  0  0  0  0  0  0  0  0  0
   -0.3661   -2.5918   15.7551 C   0  0  0  0  0  0  0  0  0  0  0  0
   -1.7435   -2.8569   15.6390 C   0  0  0  0  0  0  0  0  0  0  0  0
   -2.5431   -2.0820   14.7766 C   0  0  0  0  0  0  0  0  0  0  0  0
   -3.8845   -2.3475   14.6847 O   0  0  0  0  0  0  0  0  0  0  0  0
   -4.2234   -3.1214   13.5451 C   0  0  0  0  0  0  0  0  0  0  0  0
   -1.9721   -1.0277   14.0303 C   0  0  0  0  0  0  0  0  0  0  0  0
   -2.8224   -0.2922   13.2276 O   0  0  0  0  0  0  0  0  0  0  0  0
   -2.2600    0.6747   12.3521 C   0  0  0  0  0  0  0  0  0  0  0  0
   -0.5812   -0.7794   14.1489 C   0  0  0  0  0  0  0  0  0  0  0  0
    2.2279    0.3323   13.6609 N   0  0  0  0  0  0  0  0  0  0  0  0
    3.1449    1.2478   13.1896 C   0  0  0  0  0  0  0  0  0  0  0  0
    2.6856    2.1365   12.1062 C   0  0  0  0  0  0  0  0  0  0  0  0
    3.5832    2.5931   11.1047 C   0  0  0  0  0  0  0  0  0  0  0  0
    3.1509    3.4189   10.0441 C   0  0  0  0  0  0  0  0  0  0  0  0
    1.7976    3.8079    9.9627 C   0  0  0  0  0  0  0  0  0  0  0  0
    0.9199    3.3720   10.9788 C   0  0  0  0  0  0  0  0  0  0  0  0
    1.3383    2.5583   12.0440 C   0  0  0  0  0  0  0  0  0  0  0  0
   -0.2655    3.9464   10.5747 N   0  0  0  0  0  0  0  0  0  0  0  0
   -0.1340    4.6480    9.4172 N   0  0  0  0  0  0  0  0  0  0  0  0
    1.1083    4.5735    9.0357 N   0  0  0  0  0  0  0  0  0  0  0  0
    4.4189    1.3470   13.6898 C   0  0  0  0  0  0  0  0  0  0  0  0
  1  5  1  0
  1  2  2  0
  2  3  1  0
  3 29  1  0
  3  4  1  0
  4  5  2  0
  4  6  1  0
  6  7  1  0
  6 18  2  0
  7  8  1  0
  8 17  1  0
  8  9  2  0
  9 10  1  0
 10 11  2  0
 11 12  1  0
 11 14  1  0
 12 13  1  0
 14 15  1  0
 14 17  2  0
 15 16  1  0
 18 19  1  0
 19 20  1  0
 19 29  2  0
 20 25  1  0
 20 21  2  0
 21 22  1  0
 22 23  2  0
 23 28  1  0
 23 24  1  0
 24 25  2  0
 24 26  1  0
 26 27  1  0
 27 28  2  0
M  END
>  <s_m_source_file>  (1) 
ligprep_syk.smi

>  <i_m_source_file_index>  (1) 
26

>  <i_lp_mmshare_version>  (1) 
53161

>  <i_f3d_flags>  (1) 
0

>  <s_epik_input>  (1) 
bjFuW25IXWMoYzEyKVtjSF1jKFtjSF1bY0hdMiktYyhbY0hdMyluYyhjKG4zNCluW2NIXVtjSF00KVtOSF1jNVtjSF1bY0hdYyhPW0NIM10pYyhbY0hdNSlPW0NIM10=

>  <s_epik_cmdline>  (1) 
J2VwaWtfcHl0aG9uJywgJy1waHQnLCAnMC4wJywgJy1waCcsICc3LjQnLCAnLXRuJywgJzgnLCAnLW1hJywgJzUwMCcsICctaW1hZScsICc8aW5maWxlLm1hZT4nLCAnLW9tYWUnLCAnPG91dGZpbGUubWFlPic=

>  <r_lp_tautomer_probability>  (1) 
1

>  <r_epik_Ionization_Penalty>  (1) 
  0.0221

>  <r_epik_Ionization_Penalty_Charging>  (1) 
  0.0009

>  <r_epik_Ionization_Penalty_Neutral>  (1) 
  0.0213

>  <r_epik_State_Penalty>  (1) 
 -0.0000

>  <r_epik_Charging_Adjusted_Penalty>  (1) 
0.000851558

>  <i_epik_Tot_Q>  (1) 
0

>  <i_epik_Tot_abs_Q>  (1) 
0

>  <s_lp_Force_Field>  (1) 
S-OPLS

>  <r_lp_Energy>  (1) 
41.5083

>  <b_lp_Chiralities_Consistent>  (1) 
1

>  <s_lp_Variant>  (1) 
lig_CHEMBL3265019-1

>  <s_i_glide_gridfile>  (1) 
glide-grid_SYK-4PV0

>  <i_i_glide_lignum>  (1) 
26

>  <i_i_glide_rotatable_bonds>  (1) 
5

>  <r_i_docking_score>  (1) 
-7.67853572919728

>  <r_i_glide_ligand_efficiency>  (1) 
-0.264777094110251

>  <r_i_glide_ligand_efficiency_sa>  (1) 
-0.813479120378054

>  <r_i_glide_ligand_efficiency_ln>  (1) 
-1.7581899711202

>  <r_i_glide_gscore>  (1) 
-7.67853572919728

>  <r_i_glide_lipo>  (1) 
-2.5870860804937

>  <r_i_glide_hbond>  (1) 
-0.331690138467422

>  <r_i_glide_metal>  (1) 
-0

>  <r_i_glide_rewards>  (1) 
-2.18081641406532

>  <r_i_glide_evdw>  (1) 
-46.4309310913086

>  <r_i_glide_ecoul>  (1) 
-6.04121875762939

>  <r_i_glide_erotb>  (1) 
0.648786272038994

>  <r_i_glide_esite>  (1) 
0

>  <r_i_glide_emodel>  (1) 
-82.6824690347677

>  <r_i_glide_energy>  (1) 
-52.472149848938

>  <r_i_glide_einternal>  (1) 
-1.00792487955914e-06

>  <i_i_glide_confnum>  (1) 
2

>  <i_i_glide_posenum>  (1) 
1

>  <r_i_glide_eff_state_penalty>  (1) 
-0

>  <r_i_glide_rmsd>  (1) 
0.0733082899508386

>  <s_glide_core_constrain_type>  (1) 
snapped_core_restrain

$$$$
