lig_CHEMBL3265031
     RDKit          3D

 33 38  0  0  1  0  0  0  0  0999 V2000
   -7.2936   -2.9843   14.2606 O   0  0  0  0  0  0  0  0  0  0  0  0
   -6.2852   -3.9705   14.3994 C   0  0  0  0  0  0  0  0  0  0  0  0
   -6.9838   -5.3416   14.3395 C   0  0  0  0  0  0  0  0  0  0  0  0
   -5.5614   -3.7692   15.7547 C   0  0  0  0  0  0  0  0  0  0  0  0
   -4.7639   -2.4539   15.8096 C   0  0  0  0  0  0  0  0  0  0  0  0
   -3.9099   -2.3229   14.6345 N   0  0  0  0  0  0  0  0  0  0  0  0
   -2.5370   -2.0848   14.7701 C   0  0  0  0  0  0  0  0  0  0  0  0
   -1.9299   -1.0706   14.0044 C   0  0  0  0  0  0  0  0  0  0  0  0
   -0.5576   -0.8008   14.1389 C   0  0  0  0  0  0  0  0  0  0  0  0
    0.2406   -1.5575   15.0314 C   0  0  0  0  0  0  0  0  0  0  0  0
    1.6114   -1.3466   15.2499 N   0  0  0  0  0  0  0  0  0  0  0  0
    2.5421   -0.4493   14.6958 C   0  0  0  0  0  0  0  0  0  0  0  0
    2.2180    0.3329   13.7045 N   0  0  0  0  0  0  0  0  0  0  0  0
    3.1409    1.2333   13.2197 C   0  0  0  0  0  0  0  0  0  0  0  0
    2.6800    2.1249   12.1402 C   0  0  0  0  0  0  0  0  0  0  0  0
    3.5860    2.5970   11.1579 C   0  0  0  0  0  0  0  0  0  0  0  0
    3.1597    3.4404   10.1116 C   0  0  0  0  0  0  0  0  0  0  0  0
    1.8059    3.8353   10.0127 C   0  0  0  0  0  0  0  0  0  0  0  0
    0.9125    3.3659   11.0127 C   0  0  0  0  0  0  0  0  0  0  0  0
    1.3290    2.5336   12.0629 C   0  0  0  0  0  0  0  0  0  0  0  0
   -0.3071    3.9062   10.6464 N   0  0  0  0  0  0  0  0  0  0  0  0
   -0.2600    4.6570    9.5173 N   0  0  0  0  0  0  0  0  0  0  0  0
    0.9968    4.6274    9.1323 C   0  0  0  0  0  0  0  0  0  0  0  0
    4.4209    1.3202   13.7063 C   0  0  0  0  0  0  0  0  0  0  0  0
    4.7531    0.5146   14.7394 N   0  0  0  0  0  0  0  0  0  0  0  0
    3.8353   -0.4071   15.2933 C   0  0  0  0  0  0  0  0  0  0  0  0
    4.3861   -1.0488   16.3235 N   0  0  0  0  0  0  0  0  0  0  0  0
    5.6532   -0.4966   16.4665 C   0  0  0  0  0  0  0  0  0  0  0  0
    5.9079    0.4174   15.4850 C   0  0  0  0  0  0  0  0  0  0  0  0
   -0.3732   -2.5842   15.7816 C   0  0  0  0  0  0  0  0  0  0  0  0
   -1.7504   -2.8425   15.6627 C   0  0  0  0  0  0  0  0  0  0  0  0
   -4.4760   -2.5030   13.3047 C   0  0  0  0  0  0  0  0  0  0  0  0
   -5.2861   -3.8091   13.2288 C   0  0  0  0  0  0  0  0  0  0  0  0
  1  2  1  0
  2 33  1  0
  2  3  1  0
  2  4  1  0
  4  5  1  0
  5  6  1  0
  6  7  1  0
  6 32  1  0
  7 31  1  0
  7  8  2  0
  8  9  1  0
  9 10  2  0
 10 11  1  0
 10 30  1  0
 11 12  1  0
 12 26  1  0
 12 13  2  0
 13 14  1  0
 14 15  1  0
 14 24  2  0
 15 20  1  0
 15 16  2  0
 16 17  1  0
 17 18  2  0
 18 23  1  0
 18 19  1  0
 19 20  2  0
 19 21  1  0
 21 22  1  0
 22 23  2  0
 24 25  1  0
 25 29  1  0
 25 26  1  0
 26 27  2  0
 27 28  1  0
 28 29  2  0
 30 31  2  0
 32 33  1  0
M  END
>  <s_m_source_file>  (1) 
ligprep_syk.smi

>  <i_m_source_file_index>  (1) 
38

>  <i_lp_mmshare_version>  (1) 
53161

>  <i_f3d_flags>  (1) 
0

>  <s_epik_input>  (1) 
W09IXUMxKFtDSDNdKVtDSDJdW0NIMl1OKFtDSDJdW0NIMl0xKWMyW2NIXVtjSF1jKFtjSF1bY0hdMilbTkhdYyhjKG4zNCluW2NIXVtjSF00KW5jKFtjSF0zKS1jKFtjSF1bY0hdNSlbY0hdYyhjNTYpW25IXW5bY0hdNg==

>  <s_epik_cmdline>  (1) 
J2VwaWtfcHl0aG9uJywgJy1waHQnLCAnMC4wJywgJy1waCcsICc3LjQnLCAnLXRuJywgJzgnLCAnLW1hJywgJzUwMCcsICctaW1hZScsICc8aW5maWxlLm1hZT4nLCAnLW9tYWUnLCAnPG91dGZpbGUubWFlPic=

>  <r_lp_tautomer_probability>  (1) 
0.980392

>  <r_epik_Ionization_Penalty>  (1) 
  0.2825

>  <r_epik_Ionization_Penalty_Charging>  (1) 
  0.0009

>  <r_epik_Ionization_Penalty_Neutral>  (1) 
  0.2817

>  <r_epik_State_Penalty>  (1) 
  0.2743

>  <r_epik_Charging_Adjusted_Penalty>  (1) 
0.275153

>  <i_epik_Tot_Q>  (1) 
0

>  <i_epik_Tot_abs_Q>  (1) 
0

>  <s_lp_Force_Field>  (1) 
S-OPLS

>  <r_lp_Energy>  (1) 
51.9957

>  <b_lp_Chiralities_Consistent>  (1) 
1

>  <s_lp_Variant>  (1) 
lig_CHEMBL3265031-1

>  <s_i_glide_gridfile>  (1) 
glide-grid_SYK-4PV0

>  <i_i_glide_lignum>  (1) 
39

>  <i_i_glide_rotatable_bonds>  (1) 
5

>  <r_i_docking_score>  (1) 
-7.49685107733605

>  <r_i_glide_ligand_efficiency>  (1) 
-0.22717730537382

>  <r_i_glide_ligand_efficiency_sa>  (1) 
-0.728679005133195

>  <r_i_glide_ligand_efficiency_ln>  (1) 
-1.66726086298208

>  <r_i_glide_gscore>  (1) 
-7.77115107733605

>  <r_i_glide_lipo>  (1) 
-2.6993556452629

>  <r_i_glide_hbond>  (1) 
-0.302246124290691

>  <r_i_glide_metal>  (1) 
-0

>  <r_i_glide_rewards>  (1) 
-1.82224580301354

>  <r_i_glide_evdw>  (1) 
-47.8681602478027

>  <r_i_glide_ecoul>  (1) 
-6.17648601531982

>  <r_i_glide_erotb>  (1) 
0.413288852915862

>  <r_i_glide_esite>  (1) 
-0.0407114429966763

>  <r_i_glide_emodel>  (1) 
-78.6205090923628

>  <r_i_glide_energy>  (1) 
-54.0446462631226

>  <r_i_glide_einternal>  (1) 
1.32512354850769

>  <i_i_glide_confnum>  (1) 
17

>  <i_i_glide_posenum>  (1) 
21

>  <r_i_glide_eff_state_penalty>  (1) 
0.2743

>  <r_i_glide_rmsd>  (1) 
0.0492397678517901

>  <s_glide_core_constrain_type>  (1) 
snapped_core_restrain

$$$$
