lig_CHEMBL3265023
     RDKit          3D

 30 34  0  0  1  0  0  0  0  0999 V2000
    3.6351    4.3373    9.1792 C   0  0  0  0  0  0  0  0  0  0  0  0
    2.7616    5.1385    8.6272 N   0  0  0  0  0  0  0  0  0  0  0  0
    1.5765    4.7743    9.1462 N   0  0  0  0  0  0  0  0  0  0  0  0
    0.3663    5.4379    8.7047 C   0  0  0  0  0  0  0  0  0  0  0  0
    1.7222    3.8192   10.1282 C   0  0  0  0  0  0  0  0  0  0  0  0
    0.8072    3.2903   11.0476 C   0  0  0  0  0  0  0  0  0  0  0  0
    1.2695    2.4536   12.0807 C   0  0  0  0  0  0  0  0  0  0  0  0
    2.6329    2.0744   12.1373 C   0  0  0  0  0  0  0  0  0  0  0  0
    3.1239    1.1775   13.1996 C   0  0  0  0  0  0  0  0  0  0  0  0
    4.4059    1.2781   13.6771 C   0  0  0  0  0  0  0  0  0  0  0  0
    4.7443    0.4818   14.7165 N   0  0  0  0  0  0  0  0  0  0  0  0
    3.8329   -0.4378   15.2823 C   0  0  0  0  0  0  0  0  0  0  0  0
    4.3943   -1.0636   16.3143 N   0  0  0  0  0  0  0  0  0  0  0  0
    5.6606   -0.5073   16.4445 C   0  0  0  0  0  0  0  0  0  0  0  0
    5.9064    0.3981   15.4528 C   0  0  0  0  0  0  0  0  0  0  0  0
    2.5368   -0.4984   14.6907 C   0  0  0  0  0  0  0  0  0  0  0  0
    1.5989   -1.3870   15.2493 N   0  0  0  0  0  0  0  0  0  0  0  0
    0.2231   -1.5912   15.0261 C   0  0  0  0  0  0  0  0  0  0  0  0
   -0.3861   -2.6481   15.7354 C   0  0  0  0  0  0  0  0  0  0  0  0
   -1.7605   -2.9114   15.5952 C   0  0  0  0  0  0  0  0  0  0  0  0
   -2.5522   -2.1238   14.7363 C   0  0  0  0  0  0  0  0  0  0  0  0
   -3.8906   -2.3909   14.6177 O   0  0  0  0  0  0  0  0  0  0  0  0
   -4.2075   -3.1443   13.4580 C   0  0  0  0  0  0  0  0  0  0  0  0
   -1.9721   -1.0550   14.0198 C   0  0  0  0  0  0  0  0  0  0  0  0
   -2.8086   -0.3045   13.2160 O   0  0  0  0  0  0  0  0  0  0  0  0
   -2.2185    0.6392   12.3323 C   0  0  0  0  0  0  0  0  0  0  0  0
   -0.5859   -0.8011   14.1722 C   0  0  0  0  0  0  0  0  0  0  0  0
    2.2137    0.2677   13.6893 N   0  0  0  0  0  0  0  0  0  0  0  0
    3.5274    2.6070   11.1763 C   0  0  0  0  0  0  0  0  0  0  0  0
    3.0904    3.5248   10.1973 C   0  0  0  0  0  0  0  0  0  0  0  0
  1 30  1  0
  1  2  2  0
  2  3  1  0
  3  4  1  0
  3  5  1  0
  5 30  2  0
  5  6  1  0
  6  7  2  0
  7  8  1  0
  8  9  1  0
  8 29  2  0
  9 28  1  0
  9 10  2  0
 10 11  1  0
 11 15  1  0
 11 12  1  0
 12 13  2  0
 12 16  1  0
 13 14  1  0
 14 15  2  0
 16 17  1  0
 16 28  2  0
 17 18  1  0
 18 27  1  0
 18 19  2  0
 19 20  1  0
 20 21  2  0
 21 22  1  0
 21 24  1  0
 22 23  1  0
 24 25  1  0
 24 27  2  0
 25 26  1  0
 29 30  1  0
M  END
>  <s_m_source_file>  (1) 
ligprep_syk.smi

>  <i_m_source_file_index>  (1) 
30

>  <i_lp_mmshare_version>  (1) 
53161

>  <i_f3d_flags>  (1) 
0

>  <s_epik_input>  (1) 
W0NIM11uMW5bY0hdYyhjMTIpW2NIXWMoW2NIXVtjSF0yKS1jKFtjSF0zKW5jKGMobjM0KW5bY0hdW2NIXTQpW05IXWM1W2NIXVtjSF1jKE9bQ0gzXSljKFtjSF01KU9bQ0gzXQ==

>  <s_epik_cmdline>  (1) 
J2VwaWtfcHl0aG9uJywgJy1waHQnLCAnMC4wJywgJy1waCcsICc3LjQnLCAnLXRuJywgJzgnLCAnLW1hJywgJzUwMCcsICctaW1hZScsICc8aW5maWxlLm1hZT4nLCAnLW9tYWUnLCAnPG91dGZpbGUubWFlPic=

>  <r_lp_tautomer_probability>  (1) 
1

>  <r_epik_Ionization_Penalty>  (1) 
  0.0009

>  <r_epik_Ionization_Penalty_Charging>  (1) 
  0.0009

>  <r_epik_Ionization_Penalty_Neutral>  (1) 
  0.0000

>  <r_epik_State_Penalty>  (1) 
 -0.0000

>  <r_epik_Charging_Adjusted_Penalty>  (1) 
0.000851558

>  <i_epik_Tot_Q>  (1) 
0

>  <i_epik_Tot_abs_Q>  (1) 
0

>  <s_lp_Force_Field>  (1) 
S-OPLS

>  <r_lp_Energy>  (1) 
44.2691

>  <b_lp_Chiralities_Consistent>  (1) 
1

>  <s_lp_Variant>  (1) 
lig_CHEMBL3265023-1

>  <s_i_glide_gridfile>  (1) 
glide-grid_SYK-4PV0

>  <i_i_glide_lignum>  (1) 
30

>  <i_i_glide_rotatable_bonds>  (1) 
5

>  <r_i_docking_score>  (1) 
-7.89297721918146

>  <r_i_glide_ligand_efficiency>  (1) 
-0.263099240639382

>  <r_i_glide_ligand_efficiency_sa>  (1) 
-0.817510511879627

>  <r_i_glide_ligand_efficiency_ln>  (1) 
-1.79337042507296

>  <r_i_glide_gscore>  (1) 
-7.89297721918146

>  <r_i_glide_lipo>  (1) 
-2.8348857801987

>  <r_i_glide_hbond>  (1) 
-0.352980052056603

>  <r_i_glide_metal>  (1) 
-0

>  <r_i_glide_rewards>  (1) 
-2.27828574721764

>  <r_i_glide_evdw>  (1) 
-44.0420684814453

>  <r_i_glide_ecoul>  (1) 
-5.5735330581665

>  <r_i_glide_erotb>  (1) 
0.611307743088721

>  <r_i_glide_esite>  (1) 
0

>  <r_i_glide_emodel>  (1) 
-68.3029307904019

>  <r_i_glide_energy>  (1) 
-49.6156015396118

>  <r_i_glide_einternal>  (1) 
1.56100810499993e-07

>  <i_i_glide_confnum>  (1) 
1

>  <i_i_glide_posenum>  (1) 
1

>  <r_i_glide_eff_state_penalty>  (1) 
-0

>  <r_i_glide_rmsd>  (1) 
0.085097614812727

>  <s_glide_core_constrain_type>  (1) 
snapped_core_restrain

$$$$
