lig_CHEMBL3265015
     RDKit          3D

 30 33  0  0  1  0  0  0  0  0999 V2000
    5.6632   -0.4662   16.4451 C   0  0  0  0  0  0  0  0  0  0  0  0
    5.8975    0.4621   15.4670 C   0  0  0  0  0  0  0  0  0  0  0  0
    4.7377    0.5363   14.7155 N   0  0  0  0  0  0  0  0  0  0  0  0
    3.8319   -0.4022   15.2683 C   0  0  0  0  0  0  0  0  0  0  0  0
    4.3987   -1.0351   16.2985 N   0  0  0  0  0  0  0  0  0  0  0  0
    2.5540   -0.4896   14.6645 C   0  0  0  0  0  0  0  0  0  0  0  0
    1.6298   -1.4158   15.2151 N   0  0  0  0  0  0  0  0  0  0  0  0
    0.2491   -1.6199   15.0366 C   0  0  0  0  0  0  0  0  0  0  0  0
   -0.3540   -2.5833   15.8660 C   0  0  0  0  0  0  0  0  0  0  0  0
   -1.7332   -2.8546   15.7821 C   0  0  0  0  0  0  0  0  0  0  0  0
   -2.5335   -2.1264   14.8750 C   0  0  0  0  0  0  0  0  0  0  0  0
   -3.8825   -2.3954   14.8084 O   0  0  0  0  0  0  0  0  0  0  0  0
   -4.2429   -3.1845   13.6786 C   0  0  0  0  0  0  0  0  0  0  0  0
   -1.9582   -1.1437   14.0368 C   0  0  0  0  0  0  0  0  0  0  0  0
   -2.8106   -0.4633   13.1913 O   0  0  0  0  0  0  0  0  0  0  0  0
   -2.3047    0.5973   12.3933 C   0  0  0  0  0  0  0  0  0  0  0  0
   -0.5665   -0.9199   14.1221 C   0  0  0  0  0  0  0  0  0  0  0  0
    2.2264    0.2585   13.6585 N   0  0  0  0  0  0  0  0  0  0  0  0
    3.1167    1.2106   13.1840 C   0  0  0  0  0  0  0  0  0  0  0  0
    2.6488    2.1262   12.1243 C   0  0  0  0  0  0  0  0  0  0  0  0
    3.5327    2.5256   11.0885 C   0  0  0  0  0  0  0  0  0  0  0  0
    3.1180    3.4035   10.0780 C   0  0  0  0  0  0  0  0  0  0  0  0
    1.8031    3.9003   10.0612 C   0  0  0  0  0  0  0  0  0  0  0  0
    1.3288    4.8761    9.0416 C   0  0  0  0  0  0  0  0  0  0  0  0
    0.1900    4.8219    8.5951 O   0  0  0  0  0  0  0  0  0  0  0  0
    2.2011    5.8223    8.6998 N   0  0  0  0  0  0  0  0  0  0  0  0
    0.9045    3.4785   11.0508 C   0  0  0  0  0  0  0  0  0  0  0  0
    1.3311    2.6585   12.1136 C   0  0  0  0  0  0  0  0  0  0  0  0
    0.4029    2.5192   13.2972 C   0  0  0  0  0  0  0  0  0  0  0  0
    4.3850    1.3373   13.6899 C   0  0  0  0  0  0  0  0  0  0  0  0
  1  5  1  0
  1  2  2  0
  2  3  1  0
  3 30  1  0
  3  4  1  0
  4  5  2  0
  4  6  1  0
  6  7  1  0
  6 18  2  0
  7  8  1  0
  8 17  1  0
  8  9  2  0
  9 10  1  0
 10 11  2  0
 11 12  1  0
 11 14  1  0
 12 13  1  0
 14 15  1  0
 14 17  2  0
 15 16  1  0
 18 19  1  0
 19 20  1  0
 19 30  2  0
 20 28  1  0
 20 21  2  0
 21 22  1  0
 22 23  2  0
 23 24  1  0
 23 27  1  0
 24 25  2  0
 24 26  1  0
 27 28  2  0
 28 29  1  0
M  END
>  <s_m_source_file>  (1) 
ligprep_syk.smi

>  <i_m_source_file_index>  (1) 
22

>  <i_lp_mmshare_version>  (1) 
53161

>  <i_f3d_flags>  (1) 
0

>  <s_epik_input>  (1) 
W0NIM11PYyhbY0hdMSljKE9bQ0gzXSlbY0hdW2NIXWMxW05IXWMoYyhuMjMpbltjSF1bY0hdMiluYyhbY0hdMyktYzRbY0hdW2NIXWMoQyg9TylbTkgyXSlbY0hdYzRbQ0gzXQ==

>  <s_epik_cmdline>  (1) 
J2VwaWtfcHl0aG9uJywgJy1waHQnLCAnMC4wJywgJy1waCcsICc3LjQnLCAnLXRuJywgJzgnLCAnLW1hJywgJzUwMCcsICctaW1hZScsICc8aW5maWxlLm1hZT4nLCAnLW9tYWUnLCAnPG91dGZpbGUubWFlPic=

>  <r_lp_tautomer_probability>  (1) 
1

>  <r_epik_Ionization_Penalty>  (1) 
  0.0009

>  <r_epik_Ionization_Penalty_Charging>  (1) 
  0.0009

>  <r_epik_Ionization_Penalty_Neutral>  (1) 
  0.0000

>  <r_epik_State_Penalty>  (1) 
 -0.0000

>  <r_epik_Charging_Adjusted_Penalty>  (1) 
0.000851558

>  <i_epik_Tot_Q>  (1) 
0

>  <i_epik_Tot_abs_Q>  (1) 
0

>  <s_lp_Force_Field>  (1) 
S-OPLS

>  <r_lp_Energy>  (1) 
43.2355

>  <b_lp_Chiralities_Consistent>  (1) 
1

>  <s_lp_Variant>  (1) 
lig_CHEMBL3265015-1

>  <s_i_glide_gridfile>  (1) 
glide-grid_SYK-4PV0

>  <i_i_glide_lignum>  (1) 
22

>  <i_i_glide_rotatable_bonds>  (1) 
6

>  <r_i_docking_score>  (1) 
-7.51572118911124

>  <r_i_glide_ligand_efficiency>  (1) 
-0.250524039637041

>  <r_i_glide_ligand_efficiency_sa>  (1) 
-0.778436438600549

>  <r_i_glide_ligand_efficiency_ln>  (1) 
-1.70765374450733

>  <r_i_glide_gscore>  (1) 
-7.51572118911124

>  <r_i_glide_lipo>  (1) 
-2.52192747284387

>  <r_i_glide_hbond>  (1) 
-0.309577679808631

>  <r_i_glide_metal>  (1) 
-0

>  <r_i_glide_rewards>  (1) 
-2.24900241893856

>  <r_i_glide_evdw>  (1) 
-45.8110733032227

>  <r_i_glide_ecoul>  (1) 
-5.78955554962158

>  <r_i_glide_erotb>  (1) 
0.723773380084194

>  <r_i_glide_esite>  (1) 
0

>  <r_i_glide_emodel>  (1) 
-73.3826296998736

>  <r_i_glide_energy>  (1) 
-51.6006288528442

>  <r_i_glide_einternal>  (1) 
0.459321409463882

>  <i_i_glide_confnum>  (1) 
8

>  <i_i_glide_posenum>  (1) 
7

>  <r_i_glide_eff_state_penalty>  (1) 
-0

>  <r_i_glide_rmsd>  (1) 
0.0960861262210069

>  <s_glide_core_constrain_type>  (1) 
snapped_core_restrain

$$$$
