lig_57
     RDKit          3D

 27 29  0  0  1  0  0  0  0  0999 V2000
   27.6223    1.6890  -11.1816 O   0  0  0  0  0  0  0  0  0  0  0  0
   27.2581    0.4237  -11.6704 C   0  0  1  0  0  0  0  0  0  0  0  0
   26.1095   -0.1165  -10.8657 C   0  0  0  0  0  0  0  0  0  0  0  0
   24.9177    0.0393  -11.5606 C   0  0  0  0  0  0  0  0  0  0  0  0
   23.6836   -0.3434  -11.0139 C   0  0  0  0  0  0  0  0  0  0  0  0
   22.5667   -0.2154  -11.7986 O   0  0  0  0  0  0  0  0  0  0  0  0
   21.3430   -0.4995  -11.2626 C   0  0  0  0  0  0  0  0  0  0  0  0
   20.7619   -1.7680  -11.4576 C   0  0  0  0  0  0  0  0  0  0  0  0
   19.5001   -2.0391  -10.9051 C   0  0  0  0  0  0  0  0  0  0  0  0
   18.9325   -3.2530  -11.0955 F   0  0  0  0  0  0  0  0  0  0  0  0
   18.8211   -1.0563  -10.1681 C   0  0  0  0  0  0  0  0  0  0  0  0
   19.3915    0.2199   -9.9968 C   0  0  0  0  0  0  0  0  0  0  0  0
   18.6876    1.2566   -9.2728 C   0  0  0  0  0  0  0  0  0  0  0  0
   18.1309    2.0883   -8.6968 N   0  0  0  0  0  0  0  0  0  0  0  0
   20.6597    0.4885  -10.5277 C   0  0  0  0  0  0  0  0  0  0  0  0
   23.6768   -0.8525   -9.6902 C   0  0  0  0  0  0  0  0  0  0  0  0
   24.8835   -1.0001   -8.9716 C   0  0  0  0  0  0  0  0  0  0  0  0
   26.1189   -0.6663   -9.5639 C   0  0  0  0  0  0  0  0  0  0  0  0
   27.6234   -0.9241   -8.6188 S   0  0  0  0  0  0  0  0  0  0  0  0
   27.3278   -1.9087   -7.5699 O   0  0  0  0  0  0  0  0  0  0  0  0
   28.7269   -1.2208   -9.5351 O   0  0  0  0  0  0  0  0  0  0  0  0
   27.9904    0.6948   -7.8075 C   0  0  0  0  0  0  0  0  0  0  0  0
   27.6201    0.6193   -6.5360 F   0  0  0  0  0  0  0  0  0  0  0  0
   29.2951    0.8886   -7.8911 F   0  0  0  0  0  0  0  0  0  0  0  0
   27.3217    1.6742   -8.4095 F   0  0  0  0  0  0  0  0  0  0  0  0
   25.1336    0.6400  -12.9241 C   0  0  0  0  0  0  0  0  0  0  0  0
   26.6653    0.5904  -13.0905 C   0  0  0  0  0  0  0  0  0  0  0  0
  2  1  1  1
  2 27  1  0
  2  3  1  0
  3 18  1  0
  3  4  2  0
  4  5  1  0
  4 26  1  0
  5  6  1  0
  5 16  2  0
  6  7  1  0
  7 15  1  0
  7  8  2  0
  8  9  1  0
  9 10  1  0
  9 11  2  0
 11 12  1  0
 12 13  1  0
 12 15  2  0
 13 14  3  0
 16 17  1  0
 17 18  2  0
 18 19  1  0
 19 20  2  0
 19 21  2  0
 19 22  1  0
 22 23  1  0
 22 24  1  0
 22 25  1  0
 26 27  1  0
M  END
>  <s_m_source_file>  (1) 
ligprep_hif2a.smi

>  <i_m_source_file_index>  (1) 
37

>  <i_lp_mmshare_version>  (1) 
53161

>  <i_f3d_flags>  (1) 
0

>  <s_epik_input>  (1) 
RkMoRikoRilTKD1PKSg9TyljMVtjSF1bY0hdYyhjKGMxMilbQ0gyXVtDSDJdW0NASF0yW09IXSlPYzNbY0hdYyhGKVtjSF1jKEMjTilbY0hdMw==

>  <s_epik_cmdline>  (1) 
J2VwaWtfcHl0aG9uJywgJy1waHQnLCAnMC4wJywgJy1waCcsICc3LjQnLCAnLXRuJywgJzgnLCAnLW1hJywgJzUwMCcsICctaW1hZScsICc8aW5maWxlLm1hZT4nLCAnLW9tYWUnLCAnPG91dGZpbGUubWFlPic=

>  <r_lp_tautomer_probability>  (1) 
1

>  <r_epik_Ionization_Penalty>  (1) 
  0.0000

>  <r_epik_Ionization_Penalty_Charging>  (1) 
  0.0000

>  <r_epik_Ionization_Penalty_Neutral>  (1) 
  0.0000

>  <r_epik_State_Penalty>  (1) 
 -0.0000

>  <r_epik_Charging_Adjusted_Penalty>  (1) 
0

>  <i_epik_Tot_Q>  (1) 
0

>  <i_epik_Tot_abs_Q>  (1) 
0

>  <s_lp_Force_Field>  (1) 
S-OPLS

>  <r_lp_Energy>  (1) 
36.9505

>  <b_lp_Chiralities_Consistent>  (1) 
1

>  <s_lp_Variant>  (1) 
lig_57-1

>  <s_i_glide_gridfile>  (1) 
glide-grid_HIF2a-5TBM

>  <i_i_glide_lignum>  (1) 
37

>  <i_i_glide_rotatable_bonds>  (1) 
5

>  <r_i_docking_score>  (1) 
-11.4902594678897

>  <r_i_glide_ligand_efficiency>  (1) 
-0.425565165477396

>  <r_i_glide_ligand_efficiency_sa>  (1) 
-1.27669549502959

>  <r_i_glide_ligand_efficiency_ln>  (1) 
-2.6747429723925

>  <r_i_glide_gscore>  (1) 
-11.4902594678897

>  <r_i_glide_lipo>  (1) 
-4.80073733307911

>  <r_i_glide_hbond>  (1) 
-0.32

>  <r_i_glide_metal>  (1) 
-0

>  <r_i_glide_rewards>  (1) 
-3.32005566295155

>  <r_i_glide_evdw>  (1) 
-54.4052238464355

>  <r_i_glide_ecoul>  (1) 
-6.25364875793457

>  <r_i_glide_erotb>  (1) 
0.608842034152934

>  <r_i_glide_esite>  (1) 
0

>  <r_i_glide_emodel>  (1) 
-100.700212413363

>  <r_i_glide_energy>  (1) 
-60.6588726043701

>  <r_i_glide_einternal>  (1) 
0.225986659526825

>  <i_i_glide_confnum>  (1) 
3

>  <i_i_glide_posenum>  (1) 
13

>  <r_i_glide_eff_state_penalty>  (1) 
-0

>  <r_i_glide_rmsd>  (1) 
0.0846964536803915

>  <s_glide_core_constrain_type>  (1) 
snapped_core_restrain

$$$$
