lig_215
     RDKit          3D

 27 29  0  0  1  0  0  0  0  0999 V2000
   27.6212    1.6885  -11.2056 O   0  0  0  0  0  0  0  0  0  0  0  0
   27.2687    0.4171  -11.6947 C   0  0  1  0  0  0  0  0  0  0  0  0
   26.1348   -0.1267  -10.8699 C   0  0  0  0  0  0  0  0  0  0  0  0
   24.9262    0.0407  -11.5383 C   0  0  0  0  0  0  0  0  0  0  0  0
   23.7084   -0.3611  -10.9720 C   0  0  0  0  0  0  0  0  0  0  0  0
   22.5800   -0.2176  -11.7388 O   0  0  0  0  0  0  0  0  0  0  0  0
   21.3591   -0.4990  -11.2016 C   0  0  0  0  0  0  0  0  0  0  0  0
   20.7741   -1.7618  -11.4165 C   0  0  0  0  0  0  0  0  0  0  0  0
   19.5048   -2.0369  -10.8785 C   0  0  0  0  0  0  0  0  0  0  0  0
   18.9295   -3.2415  -11.0806 F   0  0  0  0  0  0  0  0  0  0  0  0
   18.8211   -1.0508  -10.1445 C   0  0  0  0  0  0  0  0  0  0  0  0
   19.3963    0.2215   -9.9571 C   0  0  0  0  0  0  0  0  0  0  0  0
   18.6806    1.2618   -9.2472 C   0  0  0  0  0  0  0  0  0  0  0  0
   18.1108    2.0888   -8.6758 N   0  0  0  0  0  0  0  0  0  0  0  0
   20.6773    0.4886  -10.4668 C   0  0  0  0  0  0  0  0  0  0  0  0
   23.7309   -0.9081   -9.6618 C   0  0  0  0  0  0  0  0  0  0  0  0
   24.9568   -1.0687   -8.9730 C   0  0  0  0  0  0  0  0  0  0  0  0
   26.1766   -0.7094   -9.5866 C   0  0  0  0  0  0  0  0  0  0  0  0
   27.7193   -0.9592   -8.6991 S   0  0  0  0  0  0  0  0  0  0  0  0
   27.4668   -1.9033   -7.5989 O   0  0  0  0  0  0  0  0  0  0  0  0
   28.7784   -1.2796   -9.6582 O   0  0  0  0  0  0  0  0  0  0  0  0
   28.1002    0.6838   -7.9875 C   0  0  0  0  0  0  0  0  0  0  0  0
   27.2212    0.8886   -6.4950 Cl  0  0  0  0  0  0  0  0  0  0  0  0
   25.1167    0.6480  -12.9022 C   0  0  0  0  0  0  0  0  0  0  0  0
   26.6416    0.5579  -13.1018 C   0  0  0  0  0  0  0  0  0  0  0  0
   27.1480    1.5618  -13.8212 F   0  0  0  0  0  0  0  0  0  0  0  0
   26.8846   -0.5853  -13.7451 F   0  0  0  0  0  0  0  0  0  0  0  0
  2  1  1  1
  2 25  1  0
  2  3  1  0
  3 18  1  0
  3  4  2  0
  4  5  1  0
  4 24  1  0
  5  6  1  0
  5 16  2  0
  6  7  1  0
  7 15  1  0
  7  8  2  0
  8  9  1  0
  9 10  1  0
  9 11  2  0
 11 12  1  0
 12 13  1  0
 12 15  2  0
 13 14  3  0
 16 17  1  0
 17 18  2  0
 18 19  1  0
 19 20  2  0
 19 21  2  0
 19 22  1  0
 22 23  1  0
 24 25  1  0
 25 26  1  0
 25 27  1  0
M  END
>  <s_m_source_file>  (1) 
ligprep_hif2a.smi

>  <i_m_source_file_index>  (1) 
11

>  <i_lp_mmshare_version>  (1) 
53161

>  <i_f3d_flags>  (1) 
0

>  <s_epik_input>  (1) 
Q2xbQ0gyXVMoPU8pKD1PKWMxW2NIXVtjSF1jKGMoYzEyKVtDSDJdQyhGKShGKVtDQEhdMltPSF0pT2MzW2NIXWMoRilbY0hdYyhDI04pW2NIXTM=

>  <s_epik_cmdline>  (1) 
J2VwaWtfcHl0aG9uJywgJy1waHQnLCAnMC4wJywgJy1waCcsICc3LjQnLCAnLXRuJywgJzgnLCAnLW1hJywgJzUwMCcsICctaW1hZScsICc8aW5maWxlLm1hZT4nLCAnLW9tYWUnLCAnPG91dGZpbGUubWFlPic=

>  <r_lp_tautomer_probability>  (1) 
1

>  <r_epik_Ionization_Penalty>  (1) 
  0.0012

>  <r_epik_Ionization_Penalty_Charging>  (1) 
  0.0000

>  <r_epik_Ionization_Penalty_Neutral>  (1) 
  0.0012

>  <r_epik_State_Penalty>  (1) 
 -0.0000

>  <r_epik_Charging_Adjusted_Penalty>  (1) 
0

>  <i_epik_Tot_Q>  (1) 
0

>  <i_epik_Tot_abs_Q>  (1) 
0

>  <s_lp_Force_Field>  (1) 
S-OPLS

>  <r_lp_Energy>  (1) 
25.285

>  <b_lp_Chiralities_Consistent>  (1) 
1

>  <s_lp_Variant>  (1) 
lig_215-1

>  <s_i_glide_gridfile>  (1) 
glide-grid_HIF2a-5TBM

>  <i_i_glide_lignum>  (1) 
11

>  <i_i_glide_rotatable_bonds>  (1) 
5

>  <r_i_docking_score>  (1) 
-10.9886013225815

>  <r_i_glide_ligand_efficiency>  (1) 
-0.406985234169687

>  <r_i_glide_ligand_efficiency_sa>  (1) 
-1.2209557011677

>  <r_i_glide_ligand_efficiency_ln>  (1) 
-2.55796522664566

>  <r_i_glide_gscore>  (1) 
-10.9886013225815

>  <r_i_glide_lipo>  (1) 
-4.87844438906744

>  <r_i_glide_hbond>  (1) 
-0.32

>  <r_i_glide_metal>  (1) 
-0

>  <r_i_glide_rewards>  (1) 
-3.20321406948695

>  <r_i_glide_evdw>  (1) 
-40.2013244628906

>  <r_i_glide_ecoul>  (1) 
-7.62102651596069

>  <r_i_glide_erotb>  (1) 
0.566277336511474

>  <r_i_glide_esite>  (1) 
0

>  <r_i_glide_emodel>  (1) 
-74.3209229048787

>  <r_i_glide_energy>  (1) 
-47.8223509788513

>  <r_i_glide_einternal>  (1) 
0.238605409860611

>  <i_i_glide_confnum>  (1) 
3

>  <i_i_glide_posenum>  (1) 
5

>  <r_i_glide_eff_state_penalty>  (1) 
-0

>  <r_i_glide_rmsd>  (1) 
0.0844491105177691

>  <s_glide_core_constrain_type>  (1) 
snapped_core_restrain

$$$$
