lig_254
     RDKit          3D

 27 29  0  0  1  0  0  0  0  0999 V2000
   27.6214    1.6886  -11.2289 O   0  0  0  0  0  0  0  0  0  0  0  0
   27.2433    0.4047  -11.6566 C   0  0  1  0  0  0  0  0  0  0  0  0
   26.1053   -0.0886  -10.7993 C   0  0  0  0  0  0  0  0  0  0  0  0
   24.9029    0.0624  -11.4820 C   0  0  0  0  0  0  0  0  0  0  0  0
   23.6779   -0.3112  -10.9168 C   0  0  0  0  0  0  0  0  0  0  0  0
   22.5624   -0.1847  -11.7026 O   0  0  0  0  0  0  0  0  0  0  0  0
   21.3391   -0.4614  -11.1744 C   0  0  0  0  0  0  0  0  0  0  0  0
   20.7556   -1.7211  -11.3868 C   0  0  0  0  0  0  0  0  0  0  0  0
   19.4884   -1.9984  -10.8499 C   0  0  0  0  0  0  0  0  0  0  0  0
   18.9380   -3.2155  -11.0674 F   0  0  0  0  0  0  0  0  0  0  0  0
   18.8003   -1.0074  -10.1146 C   0  0  0  0  0  0  0  0  0  0  0  0
   19.3762    0.2688   -9.9304 C   0  0  0  0  0  0  0  0  0  0  0  0
   18.6876    1.3421   -9.2330 C   0  0  0  0  0  0  0  0  0  0  0  0
   18.1534    2.2059   -8.6757 N   0  0  0  0  0  0  0  0  0  0  0  0
   20.6565    0.5261  -10.4435 C   0  0  0  0  0  0  0  0  0  0  0  0
   23.6811   -0.8060   -9.5876 C   0  0  0  0  0  0  0  0  0  0  0  0
   24.8955   -0.9515   -8.8803 C   0  0  0  0  0  0  0  0  0  0  0  0
   26.1262   -0.6152   -9.4845 C   0  0  0  0  0  0  0  0  0  0  0  0
   27.6404   -0.9594   -8.5694 S   0  0  0  0  0  0  0  0  0  0  0  0
   27.3733   -1.9902   -7.5631 O   0  0  0  0  0  0  0  0  0  0  0  0
   28.7441   -1.1667   -9.5156 O   0  0  0  0  0  0  0  0  0  0  0  0
   27.9300    0.4627   -7.6430 N   0  0  0  0  0  0  0  0  0  0  0  0
   28.1471    1.7483   -8.2854 C   0  0  0  0  0  0  0  0  0  0  0  0
   25.0951    0.6247  -12.8655 C   0  0  0  0  0  0  0  0  0  0  0  0
   26.6172    0.5285  -13.0714 C   0  0  0  0  0  0  0  0  0  0  0  0
   27.1119    1.5382  -13.7921 F   0  0  0  0  0  0  0  0  0  0  0  0
   26.8605   -0.6029  -13.7345 F   0  0  0  0  0  0  0  0  0  0  0  0
  2  1  1  1
  2 25  1  0
  2  3  1  0
  3 18  1  0
  3  4  2  0
  4  5  1  0
  4 24  1  0
  5  6  1  0
  5 16  2  0
  6  7  1  0
  7 15  1  0
  7  8  2  0
  8  9  1  0
  9 10  1  0
  9 11  2  0
 11 12  1  0
 12 13  1  0
 12 15  2  0
 13 14  3  0
 16 17  1  0
 17 18  2  0
 18 19  1  0
 19 20  2  0
 19 21  2  0
 19 22  1  0
 22 23  1  0
 24 25  1  0
 25 26  1  0
 25 27  1  0
M  END
>  <s_m_source_file>  (1) 
ligprep_hif2a.smi

>  <i_m_source_file_index>  (1) 
22

>  <i_lp_mmshare_version>  (1) 
53161

>  <i_f3d_flags>  (1) 
0

>  <s_epik_input>  (1) 
W0NIM11bTkhdUyg9TykoPU8pYzFbY0hdW2NIXWMoYyhjMTIpW0NIMl1DKEYpKEYpW0NASF0yW09IXSlPYzNbY0hdYyhGKVtjSF1jKEMjTilbY0hdMw==

>  <s_epik_cmdline>  (1) 
J2VwaWtfcHl0aG9uJywgJy1waHQnLCAnMC4wJywgJy1waCcsICc3LjQnLCAnLXRuJywgJzgnLCAnLW1hJywgJzUwMCcsICctaW1hZScsICc8aW5maWxlLm1hZT4nLCAnLW9tYWUnLCAnPG91dGZpbGUubWFlPic=

>  <r_lp_tautomer_probability>  (1) 
1

>  <r_epik_Ionization_Penalty>  (1) 
  0.0016

>  <r_epik_Ionization_Penalty_Charging>  (1) 
  0.0000

>  <r_epik_Ionization_Penalty_Neutral>  (1) 
  0.0016

>  <r_epik_State_Penalty>  (1) 
 -0.0000

>  <r_epik_Charging_Adjusted_Penalty>  (1) 
0

>  <i_epik_Tot_Q>  (1) 
0

>  <i_epik_Tot_abs_Q>  (1) 
0

>  <s_lp_Force_Field>  (1) 
S-OPLS

>  <r_lp_Energy>  (1) 
28.8905

>  <b_lp_Chiralities_Consistent>  (1) 
1

>  <s_lp_Variant>  (1) 
lig_254-1

>  <s_i_glide_gridfile>  (1) 
glide-grid_HIF2a-5TBM

>  <i_i_glide_lignum>  (1) 
22

>  <i_i_glide_rotatable_bonds>  (1) 
5

>  <r_i_docking_score>  (1) 
-11.3523952532115

>  <r_i_glide_ligand_efficiency>  (1) 
-0.420459083452279

>  <r_i_glide_ligand_efficiency_sa>  (1) 
-1.26137724897107

>  <r_i_glide_ligand_efficiency_ln>  (1) 
-2.64265045608463

>  <r_i_glide_gscore>  (1) 
-11.3523952532115

>  <r_i_glide_lipo>  (1) 
-4.73793940734375

>  <r_i_glide_hbond>  (1) 
-0.32

>  <r_i_glide_metal>  (1) 
-0

>  <r_i_glide_rewards>  (1) 
-3.18318833251831

>  <r_i_glide_evdw>  (1) 
-55.6647834777832

>  <r_i_glide_ecoul>  (1) 
-6.30054187774658

>  <r_i_glide_erotb>  (1) 
0.617052942201675

>  <r_i_glide_esite>  (1) 
0

>  <r_i_glide_emodel>  (1) 
-98.0345846166265

>  <r_i_glide_energy>  (1) 
-61.9653253555298

>  <r_i_glide_einternal>  (1) 
2.77706336975098

>  <i_i_glide_confnum>  (1) 
7

>  <i_i_glide_posenum>  (1) 
13

>  <r_i_glide_eff_state_penalty>  (1) 
-0

>  <r_i_glide_rmsd>  (1) 
0.0948986430800946

>  <s_glide_core_constrain_type>  (1) 
snapped_core_restrain

$$$$
