lig_42
     RDKit          3D

 25 26  0  0  1  0  0  0  0  0999 V2000
   28.2631    1.2852  -10.8256 O   0  0  0  0  0  0  0  0  0  0  0  0
   27.5334    0.3171  -11.5415 C   0  0  0  0  0  0  0  0  0  0  0  0
   26.2181   -0.0908  -10.8622 C   0  0  0  0  0  0  0  0  0  0  0  0
   24.9920    0.0841  -11.5457 C   0  0  0  0  0  0  0  0  0  0  0  0
   24.9295    0.7933  -13.1284 Cl  0  0  0  0  0  0  0  0  0  0  0  0
   23.7726   -0.3114  -10.9623 C   0  0  0  0  0  0  0  0  0  0  0  0
   22.6381   -0.1639  -11.7252 O   0  0  0  0  0  0  0  0  0  0  0  0
   21.4101   -0.4669  -11.2105 C   0  0  0  0  0  0  0  0  0  0  0  0
   20.8287   -1.7254  -11.4482 C   0  0  0  0  0  0  0  0  0  0  0  0
   19.5543   -2.0097  -10.9329 C   0  0  0  0  0  0  0  0  0  0  0  0
   18.9869   -3.2195  -11.1533 F   0  0  0  0  0  0  0  0  0  0  0  0
   18.8571   -1.0397  -10.1875 C   0  0  0  0  0  0  0  0  0  0  0  0
   19.4314    0.2333   -9.9792 C   0  0  0  0  0  0  0  0  0  0  0  0
   18.7279    1.2666   -9.2627 C   0  0  0  0  0  0  0  0  0  0  0  0
   18.1647    2.1020   -8.6800 N   0  0  0  0  0  0  0  0  0  0  0  0
   20.7134    0.5098  -10.4761 C   0  0  0  0  0  0  0  0  0  0  0  0
   23.7531   -0.8252   -9.6363 C   0  0  0  0  0  0  0  0  0  0  0  0
   24.9537   -0.9919   -8.9403 C   0  0  0  0  0  0  0  0  0  0  0  0
   26.1796   -0.6683   -9.5538 C   0  0  0  0  0  0  0  0  0  0  0  0
   27.6751   -0.9418   -8.5883 S   0  0  0  0  0  0  0  0  0  0  0  0
   27.3488   -1.8913   -7.5157 O   0  0  0  0  0  0  0  0  0  0  0  0
   28.7849   -1.2792   -9.4812 O   0  0  0  0  0  0  0  0  0  0  0  0
   27.9804    0.7129   -7.8070 C   0  0  0  0  0  0  0  0  0  0  0  0
   27.2348    1.6524   -8.3852 F   0  0  0  0  0  0  0  0  0  0  0  0
   27.6214    0.6683   -6.5279 F   0  0  0  0  0  0  0  0  0  0  0  0
  1  2  1  0
  2  3  1  0
  3 19  2  0
  3  4  1  0
  4  5  1  0
  4  6  2  0
  6  7  1  0
  6 17  1  0
  7  8  1  0
  8 16  1  0
  8  9  2  0
  9 10  1  0
 10 11  1  0
 10 12  2  0
 12 13  1  0
 13 14  1  0
 13 16  2  0
 14 15  3  0
 17 18  2  0
 18 19  1  0
 19 20  1  0
 20 21  2  0
 20 22  2  0
 20 23  1  0
 23 24  1  0
 23 25  1  0
M  END
>  <s_m_source_file>  (1) 
ligprep_hif2a.smi

>  <i_m_source_file_index>  (1) 
33

>  <i_lp_mmshare_version>  (1) 
53161

>  <i_f3d_flags>  (1) 
0

>  <s_epik_input>  (1) 
RltDSF0oRilTKD1PKSg9TyljMVtjSF1bY0hdYyhjKENsKWMxW0NIMl1bT0hdKU9jMltjSF1jKEYpW2NIXWMoQyNOKVtjSF0y

>  <s_epik_cmdline>  (1) 
J2VwaWtfcHl0aG9uJywgJy1waHQnLCAnMC4wJywgJy1waCcsICc3LjQnLCAnLXRuJywgJzgnLCAnLW1hJywgJzUwMCcsICctaW1hZScsICc8aW5maWxlLm1hZT4nLCAnLW9tYWUnLCAnPG91dGZpbGUubWFlPic=

>  <r_lp_tautomer_probability>  (1) 
1

>  <r_epik_Ionization_Penalty>  (1) 
  0.0000

>  <r_epik_Ionization_Penalty_Charging>  (1) 
  0.0000

>  <r_epik_Ionization_Penalty_Neutral>  (1) 
  0.0000

>  <r_epik_State_Penalty>  (1) 
 -0.0000

>  <r_epik_Charging_Adjusted_Penalty>  (1) 
0

>  <i_epik_Tot_Q>  (1) 
0

>  <i_epik_Tot_abs_Q>  (1) 
0

>  <s_lp_Force_Field>  (1) 
S-OPLS

>  <r_lp_Energy>  (1) 
30.5898

>  <b_lp_Chiralities_Consistent>  (1) 
1

>  <s_lp_Variant>  (1) 
lig_42-1

>  <s_i_glide_gridfile>  (1) 
glide-grid_HIF2a-5TBM

>  <i_i_glide_lignum>  (1) 
33

>  <i_i_glide_rotatable_bonds>  (1) 
6

>  <r_i_docking_score>  (1) 
-10.6398263947223

>  <r_i_glide_ligand_efficiency>  (1) 
-0.425593055788894

>  <r_i_glide_ligand_efficiency_sa>  (1) 
-1.24444164305171

>  <r_i_glide_ligand_efficiency_ln>  (1) 
-2.52195770541664

>  <r_i_glide_gscore>  (1) 
-10.6398263947223

>  <r_i_glide_lipo>  (1) 
-4.35071246056908

>  <r_i_glide_hbond>  (1) 
0

>  <r_i_glide_metal>  (1) 
-0

>  <r_i_glide_rewards>  (1) 
-3.36532908757917

>  <r_i_glide_evdw>  (1) 
-52.0939254760742

>  <r_i_glide_ecoul>  (1) 
-6.36652755737305

>  <r_i_glide_erotb>  (1) 
0.635890560835578

>  <r_i_glide_esite>  (1) 
0

>  <r_i_glide_emodel>  (1) 
-94.0106273433832

>  <r_i_glide_energy>  (1) 
-58.4604530334473

>  <r_i_glide_einternal>  (1) 
2.96619319915771

>  <i_i_glide_confnum>  (1) 
4

>  <i_i_glide_posenum>  (1) 
4

>  <r_i_glide_eff_state_penalty>  (1) 
-0

>  <r_i_glide_rmsd>  (1) 
0.0679534648285251

>  <s_glide_core_constrain_type>  (1) 
snapped_core_restrain

$$$$
