lig_35
     RDKit          3D

 25 26  0  0  1  0  0  0  0  0999 V2000
   27.2213    2.0944  -11.3756 O   0  0  0  0  0  0  0  0  0  0  0  0
   27.3875    0.6935  -11.3681 C   0  0  0  0  0  0  0  0  0  0  0  0
   26.1400    0.0058  -10.8116 C   0  0  0  0  0  0  0  0  0  0  0  0
   24.9127    0.1347  -11.5199 C   0  0  0  0  0  0  0  0  0  0  0  0
   24.8835    0.7760  -12.8327 C   0  0  0  0  0  0  0  0  0  0  0  0
   24.8706    1.2869  -13.8702 N   0  0  0  0  0  0  0  0  0  0  0  0
   23.7003   -0.3289  -10.9561 C   0  0  0  0  0  0  0  0  0  0  0  0
   22.5452   -0.1737  -11.6891 O   0  0  0  0  0  0  0  0  0  0  0  0
   21.3310   -0.4790  -11.1382 C   0  0  0  0  0  0  0  0  0  0  0  0
   20.7706   -1.7496  -11.3670 C   0  0  0  0  0  0  0  0  0  0  0  0
   19.5028   -2.0513  -10.8441 C   0  0  0  0  0  0  0  0  0  0  0  0
   18.9375   -3.2550  -11.0792 F   0  0  0  0  0  0  0  0  0  0  0  0
   18.8022   -1.0854  -10.1037 C   0  0  0  0  0  0  0  0  0  0  0  0
   19.3449    0.1965   -9.9043 C   0  0  0  0  0  0  0  0  0  0  0  0
   18.4263    1.4104   -9.0825 Cl  0  0  0  0  0  0  0  0  0  0  0  0
   20.6191    0.4926  -10.4023 C   0  0  0  0  0  0  0  0  0  0  0  0
   23.7141   -0.9100   -9.6666 C   0  0  0  0  0  0  0  0  0  0  0  0
   24.9228   -1.0670   -8.9718 C   0  0  0  0  0  0  0  0  0  0  0  0
   26.1390   -0.6674   -9.5600 C   0  0  0  0  0  0  0  0  0  0  0  0
   27.6259   -0.9507   -8.5930 S   0  0  0  0  0  0  0  0  0  0  0  0
   27.2967   -1.8590   -7.4850 O   0  0  0  0  0  0  0  0  0  0  0  0
   28.7356   -1.3205   -9.4810 O   0  0  0  0  0  0  0  0  0  0  0  0
   27.9487    0.7167   -7.9040 C   0  0  0  0  0  0  0  0  0  0  0  0
   27.4373    0.8014   -6.6791 F   0  0  0  0  0  0  0  0  0  0  0  0
   29.2496    0.9035   -7.8724 F   0  0  0  0  0  0  0  0  0  0  0  0
  1  2  1  0
  2  3  1  0
  3 19  2  0
  3  4  1  0
  4  5  1  0
  4  7  2  0
  5  6  3  0
  7  8  1  0
  7 17  1  0
  8  9  1  0
  9 16  1  0
  9 10  2  0
 10 11  1  0
 11 12  1  0
 11 13  2  0
 13 14  1  0
 14 15  1  0
 14 16  2  0
 17 18  2  0
 18 19  1  0
 19 20  1  0
 20 21  2  0
 20 22  2  0
 20 23  1  0
 23 24  1  0
 23 25  1  0
M  END
>  <s_m_source_file>  (1) 
ligprep_hif2a.smi

>  <i_m_source_file_index>  (1) 
31

>  <i_lp_mmshare_version>  (1) 
53161

>  <i_f3d_flags>  (1) 
0

>  <s_epik_input>  (1) 
RltDSF0oRilTKD1PKSg9TyljMVtjSF1bY0hdYyhjKEMjTiljMVtDSDJdW09IXSlPYzJbY0hdYyhGKVtjSF1jKENsKVtjSF0y

>  <s_epik_cmdline>  (1) 
J2VwaWtfcHl0aG9uJywgJy1waHQnLCAnMC4wJywgJy1waCcsICc3LjQnLCAnLXRuJywgJzgnLCAnLW1hJywgJzUwMCcsICctaW1hZScsICc8aW5maWxlLm1hZT4nLCAnLW9tYWUnLCAnPG91dGZpbGUubWFlPic=

>  <r_lp_tautomer_probability>  (1) 
1

>  <r_epik_Ionization_Penalty>  (1) 
  0.0000

>  <r_epik_Ionization_Penalty_Charging>  (1) 
  0.0000

>  <r_epik_Ionization_Penalty_Neutral>  (1) 
  0.0000

>  <r_epik_State_Penalty>  (1) 
 -0.0000

>  <r_epik_Charging_Adjusted_Penalty>  (1) 
0

>  <i_epik_Tot_Q>  (1) 
0

>  <i_epik_Tot_abs_Q>  (1) 
0

>  <s_lp_Force_Field>  (1) 
S-OPLS

>  <r_lp_Energy>  (1) 
32.3938

>  <b_lp_Chiralities_Consistent>  (1) 
1

>  <s_lp_Variant>  (1) 
lig_35-1

>  <s_i_glide_gridfile>  (1) 
glide-grid_HIF2a-5TBM

>  <i_i_glide_lignum>  (1) 
31

>  <i_i_glide_rotatable_bonds>  (1) 
6

>  <r_i_docking_score>  (1) 
-10.7672752064977

>  <r_i_glide_ligand_efficiency>  (1) 
-0.430691008259907

>  <r_i_glide_ligand_efficiency_sa>  (1) 
-1.25934814648952

>  <r_i_glide_ligand_efficiency_ln>  (1) 
-2.55216689314008

>  <r_i_glide_gscore>  (1) 
-10.7672752064977

>  <r_i_glide_lipo>  (1) 
-4.37545031063697

>  <r_i_glide_hbond>  (1) 
-0.32

>  <r_i_glide_metal>  (1) 
-0

>  <r_i_glide_rewards>  (1) 
-3.1776156832893

>  <r_i_glide_evdw>  (1) 
-51.1930274963379

>  <r_i_glide_ecoul>  (1) 
-6.46965599060059

>  <r_i_glide_erotb>  (1) 
0.635890560835578

>  <r_i_glide_esite>  (1) 
0

>  <r_i_glide_emodel>  (1) 
-91.1782758809619

>  <r_i_glide_energy>  (1) 
-57.6626834869385

>  <r_i_glide_einternal>  (1) 
3.89035773277283

>  <i_i_glide_confnum>  (1) 
3

>  <i_i_glide_posenum>  (1) 
7

>  <r_i_glide_eff_state_penalty>  (1) 
-0

>  <r_i_glide_rmsd>  (1) 
0.103827987441755

>  <s_glide_core_constrain_type>  (1) 
snapped_core_restrain

$$$$
