lig_227
     RDKit          3D

 28 30  0  0  1  0  0  0  0  0999 V2000
   27.6211    1.6900  -11.1889 O   0  0  0  0  0  0  0  0  0  0  0  0
   27.2629    0.4237  -11.6844 C   0  0  1  0  0  0  0  0  0  0  0  0
   26.1121   -0.1159  -10.8792 C   0  0  0  0  0  0  0  0  0  0  0  0
   24.9163    0.0502  -11.5691 C   0  0  0  0  0  0  0  0  0  0  0  0
   23.6844   -0.3355  -11.0183 C   0  0  0  0  0  0  0  0  0  0  0  0
   22.5613   -0.1927  -11.7936 O   0  0  0  0  0  0  0  0  0  0  0  0
   21.3375   -0.4807  -11.2608 C   0  0  0  0  0  0  0  0  0  0  0  0
   20.7611   -1.7500  -11.4603 C   0  0  0  0  0  0  0  0  0  0  0  0
   19.5000   -2.0321  -10.9063 C   0  0  0  0  0  0  0  0  0  0  0  0
   18.9330   -3.2428  -11.0929 F   0  0  0  0  0  0  0  0  0  0  0  0
   18.8169   -1.0503  -10.1677 C   0  0  0  0  0  0  0  0  0  0  0  0
   19.3797    0.2293   -9.9935 C   0  0  0  0  0  0  0  0  0  0  0  0
   18.6744    1.2662   -9.2648 C   0  0  0  0  0  0  0  0  0  0  0  0
   18.1165    2.0932   -8.6774 N   0  0  0  0  0  0  0  0  0  0  0  0
   20.6493    0.5011  -10.5267 C   0  0  0  0  0  0  0  0  0  0  0  0
   23.6812   -0.8568   -9.6985 C   0  0  0  0  0  0  0  0  0  0  0  0
   24.8913   -1.0167   -8.9888 C   0  0  0  0  0  0  0  0  0  0  0  0
   26.1243   -0.6778   -9.5866 C   0  0  0  0  0  0  0  0  0  0  0  0
   27.6305   -0.9220   -8.6443 S   0  0  0  0  0  0  0  0  0  0  0  0
   27.3346   -1.8906   -7.5790 O   0  0  0  0  0  0  0  0  0  0  0  0
   28.7409   -1.2237   -9.5545 O   0  0  0  0  0  0  0  0  0  0  0  0
   27.9692    0.7063   -7.8595 C   0  0  0  0  0  0  0  0  0  0  0  0
   27.6209    0.6356   -6.5766 F   0  0  0  0  0  0  0  0  0  0  0  0
   29.2593    0.9500   -7.9721 F   0  0  0  0  0  0  0  0  0  0  0  0
   27.2769    1.6760   -8.4497 F   0  0  0  0  0  0  0  0  0  0  0  0
   25.1364    0.6621  -12.9273 C   0  0  0  0  0  0  0  0  0  0  0  0
   26.6617    0.5684  -13.1030 C   0  0  1  0  0  0  0  0  0  0  0  0
   27.1934    1.5531  -13.8284 F   0  0  0  0  0  0  0  0  0  0  0  0
  2  1  1  1
  2 27  1  0
  2  3  1  0
  3 18  1  0
  3  4  2  0
  4  5  1  0
  4 26  1  0
  5  6  1  0
  5 16  2  0
  6  7  1  0
  7 15  1  0
  7  8  2  0
  8  9  1  0
  9 10  1  0
  9 11  2  0
 11 12  1  0
 12 13  1  0
 12 15  2  0
 13 14  3  0
 16 17  1  0
 17 18  2  0
 18 19  1  0
 19 20  2  0
 19 21  2  0
 19 22  1  0
 22 23  1  0
 22 24  1  0
 22 25  1  0
 26 27  1  0
 27 28  1  1
M  END
>  <s_m_source_file>  (1) 
ligprep_hif2a.smi

>  <i_m_source_file_index>  (1) 
13

>  <i_lp_mmshare_version>  (1) 
53161

>  <i_f3d_flags>  (1) 
0

>  <s_epik_input>  (1) 
RkMoRikoRilTKD1PKSg9TyljMVtjSF1bY0hdYyhjKGMxMilbQ0gyXVtDQEBIXShGKVtDQEhdMltPSF0pT2MzW2NIXWMoRilbY0hdYyhDI04pW2NIXTM=

>  <s_epik_cmdline>  (1) 
J2VwaWtfcHl0aG9uJywgJy1waHQnLCAnMC4wJywgJy1waCcsICc3LjQnLCAnLXRuJywgJzgnLCAnLW1hJywgJzUwMCcsICctaW1hZScsICc8aW5maWxlLm1hZT4nLCAnLW9tYWUnLCAnPG91dGZpbGUubWFlPic=

>  <r_lp_tautomer_probability>  (1) 
1

>  <r_epik_Ionization_Penalty>  (1) 
  0.0000

>  <r_epik_Ionization_Penalty_Charging>  (1) 
  0.0000

>  <r_epik_Ionization_Penalty_Neutral>  (1) 
  0.0000

>  <r_epik_State_Penalty>  (1) 
 -0.0000

>  <r_epik_Charging_Adjusted_Penalty>  (1) 
0

>  <i_epik_Tot_Q>  (1) 
0

>  <i_epik_Tot_abs_Q>  (1) 
0

>  <s_lp_Force_Field>  (1) 
S-OPLS

>  <r_lp_Energy>  (1) 
34.778

>  <b_lp_Chiralities_Consistent>  (1) 
1

>  <s_lp_Variant>  (1) 
lig_227-1

>  <s_i_glide_gridfile>  (1) 
glide-grid_HIF2a-5TBM

>  <i_i_glide_lignum>  (1) 
13

>  <i_i_glide_rotatable_bonds>  (1) 
5

>  <r_i_docking_score>  (1) 
-11.4706498963142

>  <r_i_glide_ligand_efficiency>  (1) 
-0.409666067725509

>  <r_i_glide_ligand_efficiency_sa>  (1) 
-1.24398746202521

>  <r_i_glide_ligand_efficiency_ln>  (1) 
-2.64776278898485

>  <r_i_glide_gscore>  (1) 
-11.4706498963142

>  <r_i_glide_lipo>  (1) 
-4.80108878883126

>  <r_i_glide_hbond>  (1) 
-0.32

>  <r_i_glide_metal>  (1) 
-0

>  <r_i_glide_rewards>  (1) 
-3.18407581307947

>  <r_i_glide_evdw>  (1) 
-54.9079856872559

>  <r_i_glide_ecoul>  (1) 
-6.55079936981201

>  <r_i_glide_erotb>  (1) 
0.562533895431074

>  <r_i_glide_esite>  (1) 
0

>  <r_i_glide_emodel>  (1) 
-102.017457639426

>  <r_i_glide_energy>  (1) 
-61.4587850570679

>  <r_i_glide_einternal>  (1) 
0.232853606343269

>  <i_i_glide_confnum>  (1) 
1

>  <i_i_glide_posenum>  (1) 
13

>  <r_i_glide_eff_state_penalty>  (1) 
-0

>  <r_i_glide_rmsd>  (1) 
0.0868235116603607

>  <s_glide_core_constrain_type>  (1) 
snapped_core_restrain

$$$$
