lig_231
     RDKit          3D

 25 27  0  0  1  0  0  0  0  0999 V2000
   27.6211    1.6889  -11.1947 O   0  0  0  0  0  0  0  0  0  0  0  0
   27.2903    0.3967  -11.6456 C   0  0  1  0  0  0  0  0  0  0  0  0
   26.1489   -0.1357  -10.8218 C   0  0  0  0  0  0  0  0  0  0  0  0
   24.9476    0.0207  -11.5069 C   0  0  0  0  0  0  0  0  0  0  0  0
   23.7203   -0.3657  -10.9475 C   0  0  0  0  0  0  0  0  0  0  0  0
   22.5971   -0.2279  -11.7235 O   0  0  0  0  0  0  0  0  0  0  0  0
   21.3698   -0.5032  -11.1936 C   0  0  0  0  0  0  0  0  0  0  0  0
   20.7810   -1.7638  -11.4079 C   0  0  0  0  0  0  0  0  0  0  0  0
   19.5067   -2.0334  -10.8801 C   0  0  0  0  0  0  0  0  0  0  0  0
   18.9305   -3.2372  -11.0817 F   0  0  0  0  0  0  0  0  0  0  0  0
   18.8211   -1.0445  -10.1542 C   0  0  0  0  0  0  0  0  0  0  0  0
   19.3984    0.2256   -9.9646 C   0  0  0  0  0  0  0  0  0  0  0  0
   18.6833    1.2643   -9.2518 C   0  0  0  0  0  0  0  0  0  0  0  0
   18.1154    2.0885   -8.6758 N   0  0  0  0  0  0  0  0  0  0  0  0
   20.6828    0.4881  -10.4676 C   0  0  0  0  0  0  0  0  0  0  0  0
   23.7295   -0.8915   -9.6294 C   0  0  0  0  0  0  0  0  0  0  0  0
   24.9460   -1.0415   -8.9228 C   0  0  0  0  0  0  0  0  0  0  0  0
   26.1749   -0.6894   -9.5234 C   0  0  0  0  0  0  0  0  0  0  0  0
   27.6961   -0.8963   -8.5856 S   0  0  0  0  0  0  0  0  0  0  0  0
   27.4405   -1.8262   -7.4781 O   0  0  0  0  0  0  0  0  0  0  0  0
   28.7962   -1.2103   -9.5019 O   0  0  0  0  0  0  0  0  0  0  0  0
   28.0211    0.7634   -7.8793 C   0  0  0  0  0  0  0  0  0  0  0  0
   25.1566    0.6117  -12.8766 C   0  0  0  0  0  0  0  0  0  0  0  0
   26.6774    0.4860  -13.0641 C   0  0  1  0  0  0  0  0  0  0  0  0
   27.2203    1.4210  -13.8433 F   0  0  0  0  0  0  0  0  0  0  0  0
  2  1  1  1
  2 24  1  0
  2  3  1  0
  3 18  1  0
  3  4  2  0
  4  5  1  0
  4 23  1  0
  5  6  1  0
  5 16  2  0
  6  7  1  0
  7 15  1  0
  7  8  2  0
  8  9  1  0
  9 10  1  0
  9 11  2  0
 11 12  1  0
 12 13  1  0
 12 15  2  0
 13 14  3  0
 16 17  1  0
 17 18  2  0
 18 19  1  0
 19 20  2  0
 19 21  2  0
 19 22  1  0
 23 24  1  0
 24 25  1  1
M  END
>  <s_m_source_file>  (1) 
ligprep_hif2a.smi

>  <i_m_source_file_index>  (1) 
15

>  <i_lp_mmshare_version>  (1) 
53161

>  <i_f3d_flags>  (1) 
0

>  <s_epik_input>  (1) 
W09IXVtDQEBIXTFbQ0BIXShGKVtDSDJdYyhjMTIpYyhbY0hdW2NIXWMyUyg9TykoPU8pW0NIM10pT2MzW2NIXWMoRilbY0hdYyhDI04pW2NIXTM=

>  <s_epik_cmdline>  (1) 
J2VwaWtfcHl0aG9uJywgJy1waHQnLCAnMC4wJywgJy1waCcsICc3LjQnLCAnLXRuJywgJzgnLCAnLW1hJywgJzUwMCcsICctaW1hZScsICc8aW5maWxlLm1hZT4nLCAnLW9tYWUnLCAnPG91dGZpbGUubWFlPic=

>  <r_lp_tautomer_probability>  (1) 
1

>  <r_epik_Ionization_Penalty>  (1) 
  0.0000

>  <r_epik_Ionization_Penalty_Charging>  (1) 
  0.0000

>  <r_epik_Ionization_Penalty_Neutral>  (1) 
  0.0000

>  <r_epik_State_Penalty>  (1) 
 -0.0000

>  <r_epik_Charging_Adjusted_Penalty>  (1) 
0

>  <i_epik_Tot_Q>  (1) 
0

>  <i_epik_Tot_abs_Q>  (1) 
0

>  <s_lp_Force_Field>  (1) 
S-OPLS

>  <r_lp_Energy>  (1) 
22.2482

>  <b_lp_Chiralities_Consistent>  (1) 
1

>  <s_lp_Variant>  (1) 
lig_231-1

>  <s_i_glide_gridfile>  (1) 
glide-grid_HIF2a-5TBM

>  <i_i_glide_lignum>  (1) 
15

>  <i_i_glide_rotatable_bonds>  (1) 
4

>  <r_i_docking_score>  (1) 
-11.7068294452068

>  <r_i_glide_ligand_efficiency>  (1) 
-0.468273177808273

>  <r_i_glide_ligand_efficiency_sa>  (1) 
-1.36923907677156

>  <r_i_glide_ligand_efficiency_ln>  (1) 
-2.77486940388262

>  <r_i_glide_gscore>  (1) 
-11.7068294452068

>  <r_i_glide_lipo>  (1) 
-4.79663279299418

>  <r_i_glide_hbond>  (1) 
-0.32

>  <r_i_glide_metal>  (1) 
-0

>  <r_i_glide_rewards>  (1) 
-3.48962912592739

>  <r_i_glide_evdw>  (1) 
-54.9381675720215

>  <r_i_glide_ecoul>  (1) 
-6.20046997070312

>  <r_i_glide_erotb>  (1) 
0.576411347921285

>  <r_i_glide_esite>  (1) 
0

>  <r_i_glide_emodel>  (1) 
-102.548867421008

>  <r_i_glide_energy>  (1) 
-61.1386375427246

>  <r_i_glide_einternal>  (1) 
0.00639106146991253

>  <i_i_glide_confnum>  (1) 
1

>  <i_i_glide_posenum>  (1) 
1

>  <r_i_glide_eff_state_penalty>  (1) 
-0

>  <r_i_glide_rmsd>  (1) 
0.068934951076553

>  <s_glide_core_constrain_type>  (1) 
snapped_core_restrain

$$$$
