lig_50
     RDKit          3D

 22 23  0  0  1  0  0  0  0  0999 V2000
   18.8211   -1.0120  -10.1004 C   0  0  0  0  0  0  0  0  0  0  0  0
   19.5314   -1.9977  -10.8087 C   0  0  0  0  0  0  0  0  0  0  0  0
   18.9698   -3.2022  -11.0387 F   0  0  0  0  0  0  0  0  0  0  0  0
   20.8134   -1.7165  -11.3078 C   0  0  0  0  0  0  0  0  0  0  0  0
   21.3824   -0.4461  -11.0956 C   0  0  0  0  0  0  0  0  0  0  0  0
   22.6050   -0.1537  -11.6303 O   0  0  0  0  0  0  0  0  0  0  0  0
   23.7601   -0.3076  -10.8961 C   0  0  0  0  0  0  0  0  0  0  0  0
   23.7740   -0.8655   -9.5948 C   0  0  0  0  0  0  0  0  0  0  0  0
   24.9918   -1.0265   -8.9104 C   0  0  0  0  0  0  0  0  0  0  0  0
   26.2037   -0.6541   -9.5250 C   0  0  0  0  0  0  0  0  0  0  0  0
   27.7090   -0.9298   -8.5729 S   0  0  0  0  0  0  0  0  0  0  0  0
   27.4205   -1.8625   -7.4758 O   0  0  0  0  0  0  0  0  0  0  0  0
   28.7994   -1.2738   -9.4895 O   0  0  0  0  0  0  0  0  0  0  0  0
   28.0961    0.7064   -7.8471 C   0  0  0  0  0  0  0  0  0  0  0  0
   26.2122   -0.0335  -10.8010 C   0  0  0  0  0  0  0  0  0  0  0  0
   27.5256    0.4001  -11.4490 C   0  0  0  0  0  0  0  0  0  0  0  0
   24.9742    0.1348  -11.4759 C   0  0  0  0  0  0  0  0  0  0  0  0
   24.9318    0.7747  -12.7865 C   0  0  0  0  0  0  0  0  0  0  0  0
   24.9093    1.2886  -13.8228 N   0  0  0  0  0  0  0  0  0  0  0  0
   20.6595    0.5492  -10.4047 C   0  0  0  0  0  0  0  0  0  0  0  0
   19.3783    0.2665   -9.9002 C   0  0  0  0  0  0  0  0  0  0  0  0
   18.4816    1.4981   -9.0843 Cl  0  0  0  0  0  0  0  0  0  0  0  0
  1 21  2  0
  1  2  1  0
  2  3  1  0
  2  4  2  0
  4  5  1  0
  5  6  1  0
  5 20  2  0
  6  7  1  0
  7 17  1  0
  7  8  2  0
  8  9  1  0
  9 10  2  0
 10 11  1  0
 10 15  1  0
 11 12  2  0
 11 13  2  0
 11 14  1  0
 15 16  1  0
 15 17  2  0
 17 18  1  0
 18 19  3  0
 20 21  1  0
 21 22  1  0
M  END
>  <s_m_source_file>  (1) 
ligprep_hif2a.smi

>  <i_m_source_file_index>  (1) 
35

>  <i_lp_mmshare_version>  (1) 
53161

>  <i_f3d_flags>  (1) 
0

>  <s_epik_input>  (1) 
RmMxW2NIXWMoQ2wpW2NIXWMoW2NIXTEpT2MyW2NIXVtjSF1jKFMoPU8pKD1PKVtDSDNdKWMoW0NIM10pYzJDI04=

>  <s_epik_cmdline>  (1) 
J2VwaWtfcHl0aG9uJywgJy1waHQnLCAnMC4wJywgJy1waCcsICc3LjQnLCAnLXRuJywgJzgnLCAnLW1hJywgJzUwMCcsICctaW1hZScsICc8aW5maWxlLm1hZT4nLCAnLW9tYWUnLCAnPG91dGZpbGUubWFlPic=

>  <r_lp_tautomer_probability>  (1) 
1

>  <r_epik_Ionization_Penalty>  (1) 
  0.0000

>  <r_epik_Ionization_Penalty_Charging>  (1) 
  0.0000

>  <r_epik_Ionization_Penalty_Neutral>  (1) 
  0.0000

>  <r_epik_State_Penalty>  (1) 
 -0.0000

>  <r_epik_Charging_Adjusted_Penalty>  (1) 
0

>  <i_epik_Tot_Q>  (1) 
0

>  <i_epik_Tot_abs_Q>  (1) 
0

>  <s_lp_Force_Field>  (1) 
S-OPLS

>  <r_lp_Energy>  (1) 
19.7308

>  <b_lp_Chiralities_Consistent>  (1) 
1

>  <s_lp_Variant>  (1) 
lig_50-1

>  <s_i_glide_gridfile>  (1) 
glide-grid_HIF2a-5TBM

>  <i_i_glide_lignum>  (1) 
35

>  <i_i_glide_rotatable_bonds>  (1) 
3

>  <r_i_docking_score>  (1) 
-9.87417566120817

>  <r_i_glide_ligand_efficiency>  (1) 
-0.448826166418553

>  <r_i_glide_ligand_efficiency_sa>  (1) 
-1.25762856963627

>  <r_i_glide_ligand_efficiency_ln>  (1) 
-2.41360870090764

>  <r_i_glide_gscore>  (1) 
-9.87417566120817

>  <r_i_glide_lipo>  (1) 
-4.31922780984657

>  <r_i_glide_hbond>  (1) 
0

>  <r_i_glide_metal>  (1) 
-0

>  <r_i_glide_rewards>  (1) 
-3.1555000024791

>  <r_i_glide_evdw>  (1) 
-49.334831237793

>  <r_i_glide_ecoul>  (1) 
-2.83071041107178

>  <r_i_glide_erotb>  (1) 
0.491900274667924

>  <r_i_glide_esite>  (1) 
0

>  <r_i_glide_emodel>  (1) 
-84.7986088663317

>  <r_i_glide_energy>  (1) 
-52.1655416488647

>  <r_i_glide_einternal>  (1) 
8.03357806944405e-08

>  <i_i_glide_confnum>  (1) 
1

>  <i_i_glide_posenum>  (1) 
1

>  <r_i_glide_eff_state_penalty>  (1) 
-0

>  <r_i_glide_rmsd>  (1) 
0.0951969970512196

>  <s_glide_core_constrain_type>  (1) 
snapped_core_restrain

$$$$
