lig_252
     RDKit          3D

 26 28  0  0  1  0  0  0  0  0999 V2000
   27.6211    1.7076  -11.1566 O   0  0  0  0  0  0  0  0  0  0  0  0
   27.2820    0.4272  -11.6321 C   0  0  1  0  0  0  0  0  0  0  0  0
   26.1406   -0.1020  -10.8071 C   0  0  0  0  0  0  0  0  0  0  0  0
   24.9418    0.0594  -11.4931 C   0  0  0  0  0  0  0  0  0  0  0  0
   23.7163   -0.3291  -10.9382 C   0  0  0  0  0  0  0  0  0  0  0  0
   22.6011   -0.2054  -11.7260 O   0  0  0  0  0  0  0  0  0  0  0  0
   21.3763   -0.4964  -11.2055 C   0  0  0  0  0  0  0  0  0  0  0  0
   20.8027   -1.7642  -11.4138 C   0  0  0  0  0  0  0  0  0  0  0  0
   19.5300   -2.0446  -10.8857 C   0  0  0  0  0  0  0  0  0  0  0  0
   18.9674   -3.2555  -11.0865 F   0  0  0  0  0  0  0  0  0  0  0  0
   18.8312   -1.0602  -10.1625 C   0  0  0  0  0  0  0  0  0  0  0  0
   19.4011    0.2154   -9.9742 C   0  0  0  0  0  0  0  0  0  0  0  0
   18.6950    1.2579   -9.2560 C   0  0  0  0  0  0  0  0  0  0  0  0
   18.1382    2.0888   -8.6754 N   0  0  0  0  0  0  0  0  0  0  0  0
   20.6808    0.4887  -10.4823 C   0  0  0  0  0  0  0  0  0  0  0  0
   23.7178   -0.8384   -9.6127 C   0  0  0  0  0  0  0  0  0  0  0  0
   24.9315   -0.9920   -8.9043 C   0  0  0  0  0  0  0  0  0  0  0  0
   26.1614   -0.6488   -9.5051 C   0  0  0  0  0  0  0  0  0  0  0  0
   27.6789   -0.9241   -8.5817 S   0  0  0  0  0  0  0  0  0  0  0  0
   27.4049   -1.8605   -7.4848 O   0  0  0  0  0  0  0  0  0  0  0  0
   28.7866   -1.2021   -9.5006 O   0  0  0  0  0  0  0  0  0  0  0  0
   27.9636    0.6108   -7.8756 N   0  0  0  0  0  0  0  0  0  0  0  0
   25.1464    0.6594  -12.8593 C   0  0  0  0  0  0  0  0  0  0  0  0
   26.6695    0.5549  -13.0531 C   0  0  0  0  0  0  0  0  0  0  0  0
   27.1817    1.5532  -13.7753 F   0  0  0  0  0  0  0  0  0  0  0  0
   26.9026   -0.5842  -13.7088 F   0  0  0  0  0  0  0  0  0  0  0  0
  2  1  1  1
  2 24  1  0
  2  3  1  0
  3 18  1  0
  3  4  2  0
  4  5  1  0
  4 23  1  0
  5  6  1  0
  5 16  2  0
  6  7  1  0
  7 15  1  0
  7  8  2  0
  8  9  1  0
  9 10  1  0
  9 11  2  0
 11 12  1  0
 12 13  1  0
 12 15  2  0
 13 14  3  0
 16 17  1  0
 17 18  2  0
 18 19  1  0
 19 20  2  0
 19 21  2  0
 19 22  1  0
 23 24  1  0
 24 25  1  0
 24 26  1  0
M  END
>  <s_m_source_file>  (1) 
ligprep_hif2a.smi

>  <i_m_source_file_index>  (1) 
21

>  <i_lp_mmshare_version>  (1) 
53161

>  <i_f3d_flags>  (1) 
0

>  <s_epik_input>  (1) 
W09IXVtDQEBIXTFDKEYpKEYpW0NIMl1jKGMxMiljKFtjSF1bY0hdYzJTKD1PKSg9TylbTkgyXSlPYzNbY0hdYyhGKVtjSF1jKEMjTilbY0hdMw==

>  <s_epik_cmdline>  (1) 
J2VwaWtfcHl0aG9uJywgJy1waHQnLCAnMC4wJywgJy1waCcsICc3LjQnLCAnLXRuJywgJzgnLCAnLW1hJywgJzUwMCcsICctaW1hZScsICc8aW5maWxlLm1hZT4nLCAnLW9tYWUnLCAnPG91dGZpbGUubWFlPic=

>  <r_lp_tautomer_probability>  (1) 
1

>  <r_epik_Ionization_Penalty>  (1) 
  0.0055

>  <r_epik_Ionization_Penalty_Charging>  (1) 
  0.0000

>  <r_epik_Ionization_Penalty_Neutral>  (1) 
  0.0055

>  <r_epik_State_Penalty>  (1) 
 -0.0000

>  <r_epik_Charging_Adjusted_Penalty>  (1) 
0

>  <i_epik_Tot_Q>  (1) 
0

>  <i_epik_Tot_abs_Q>  (1) 
0

>  <s_lp_Force_Field>  (1) 
S-OPLS

>  <r_lp_Energy>  (1) 
25.2664

>  <b_lp_Chiralities_Consistent>  (1) 
1

>  <s_lp_Variant>  (1) 
lig_252-1

>  <s_i_glide_gridfile>  (1) 
glide-grid_HIF2a-5TBM

>  <i_i_glide_lignum>  (1) 
21

>  <i_i_glide_rotatable_bonds>  (1) 
4

>  <r_i_docking_score>  (1) 
-11.1462706056304

>  <r_i_glide_ligand_efficiency>  (1) 
-0.428702715601168

>  <r_i_glide_ligand_efficiency_sa>  (1) 
-1.27003010810473

>  <r_i_glide_ligand_efficiency_ln>  (1) 
-2.61766507783533

>  <r_i_glide_gscore>  (1) 
-11.1462706056304

>  <r_i_glide_lipo>  (1) 
-4.43296584390903

>  <r_i_glide_hbond>  (1) 
-0.32

>  <r_i_glide_metal>  (1) 
-0

>  <r_i_glide_rewards>  (1) 
-3.42601088770019

>  <r_i_glide_evdw>  (1) 
-54.446907043457

>  <r_i_glide_ecoul>  (1) 
-5.14283275604248

>  <r_i_glide_erotb>  (1) 
0.526476391558088

>  <r_i_glide_esite>  (1) 
0

>  <r_i_glide_emodel>  (1) 
-98.2354964438163

>  <r_i_glide_energy>  (1) 
-59.5897397994995

>  <r_i_glide_einternal>  (1) 
0.00631894590333104

>  <i_i_glide_confnum>  (1) 
1

>  <i_i_glide_posenum>  (1) 
1

>  <r_i_glide_eff_state_penalty>  (1) 
-0

>  <r_i_glide_rmsd>  (1) 
0.063487821006427

>  <s_glide_core_constrain_type>  (1) 
snapped_core_restrain

$$$$
