lig_35
     RDKit          3D

 24 26  0  0  1  0  0  0  0  0999 V2000
   68.7411  -35.7769   28.0305 C   0  0  0  0  0  0  0  0  0  0  0  0
   70.0546  -35.6749   28.5286 C   0  0  0  0  0  0  0  0  0  0  0  0
   70.9362  -34.7193   27.9870 C   0  0  0  0  0  0  0  0  0  0  0  0
   70.4958  -33.8782   26.9459 C   0  0  0  0  0  0  0  0  0  0  0  0
   69.1759  -33.9648   26.4189 C   0  0  0  0  0  0  0  0  0  0  0  0
   68.3080  -34.9274   26.9904 C   0  0  0  0  0  0  0  0  0  0  0  0
   69.0447  -32.9756   25.3817 C   0  0  0  0  0  0  0  0  0  0  0  0
   70.2532  -32.3209   25.2897 C   0  0  0  0  0  0  0  0  0  0  0  0
   71.1070  -32.8624   26.2387 N   0  0  0  0  0  0  0  0  0  0  0  0
   70.7653  -31.1984   24.4556 C   0  0  0  0  0  0  0  0  0  0  0  0
   71.8467  -30.6548   24.7751 O   0  0  0  0  0  0  0  0  0  0  0  0
   70.1165  -30.7982   23.4628 O   0  0  0  0  0  0  0  0  0  0  0  0
   67.8072  -32.6530   24.5922 C   0  0  0  0  0  0  0  0  0  0  0  0
   67.1601  -31.3312   25.0440 C   0  0  0  0  0  0  0  0  0  0  0  0
   66.5509  -31.3909   26.4513 C   0  0  0  0  0  0  0  0  0  0  0  0
   65.3954  -32.2020   26.3685 O   0  0  0  0  0  0  0  0  0  0  0  0
   64.5234  -32.2100   27.4282 C   0  0  0  0  0  0  0  0  0  0  0  0
   63.2346  -32.7156   27.1783 C   0  0  0  0  0  0  0  0  0  0  0  0
   62.2974  -32.8302   28.2174 C   0  0  0  0  0  0  0  0  0  0  0  0
   62.6404  -32.4216   29.5181 C   0  0  0  0  0  0  0  0  0  0  0  0
   63.9095  -31.8553   29.7765 C   0  0  0  0  0  0  0  0  0  0  0  0
   64.8529  -31.7643   28.7316 C   0  0  0  0  0  0  0  0  0  0  0  0
   64.2787  -31.3668   31.1648 C   0  0  0  0  0  0  0  0  0  0  0  0
   61.4886  -32.6519   30.7782 Cl  0  0  0  0  0  0  0  0  0  0  0  0
  1  6  2  0
  1  2  1  0
  2  3  2  0
  3  4  1  0
  4  9  1  0
  4  5  2  0
  5  6  1  0
  5  7  1  0
  7  8  2  0
  7 13  1  0
  8  9  1  0
  8 10  1  0
 10 11  2  0
 10 12  1  0
 13 14  1  0
 14 15  1  0
 15 16  1  0
 16 17  1  0
 17 22  1  0
 17 18  2  0
 18 19  1  0
 19 20  2  0
 20 21  1  0
 20 24  1  0
 21 22  2  0
 21 23  1  0
M  CHG  1  12  -1
M  END
>  <s_m_source_file>  (1) 
ligprep_mcl1.smi

>  <i_m_source_file_index>  (1) 
11

>  <i_lp_mmshare_version>  (1) 
53161

>  <i_f3d_flags>  (1) 
0

>  <s_epik_input>  (1) 
W2NIXTFbY0hdW2NIXVtjSF1jKGMxMiljKGMoW25IXTIpQyg9TylbT0hdKVtDSDJdW0NIMl1bQ0gyXU9jM1tjSF1bY0hdYyhDbCljKFtjSF0zKVtDSDNd

>  <s_epik_cmdline>  (1) 
J2VwaWtfcHl0aG9uJywgJy1waHQnLCAnMC4wJywgJy1waCcsICc3LjQnLCAnLXRuJywgJzgnLCAnLW1hJywgJzUwMCcsICctaW1hZScsICc8aW5maWxlLm1hZT4nLCAnLW9tYWUnLCAnPG91dGZpbGUubWFlPic=

>  <r_lp_tautomer_probability>  (1) 
1

>  <r_epik_Ionization_Penalty>  (1) 
  0.0005

>  <r_epik_Ionization_Penalty_Charging>  (1) 
  0.0005

>  <r_epik_Ionization_Penalty_Neutral>  (1) 
  0.0000

>  <r_epik_State_Penalty>  (1) 
 -0.0000

>  <r_epik_Charging_Adjusted_Penalty>  (1) 
0.000518745

>  <i_epik_Tot_Q>  (1) 
-1

>  <i_epik_Tot_abs_Q>  (1) 
1

>  <s_lp_Force_Field>  (1) 
S-OPLS

>  <r_lp_Energy>  (1) 
33.8968

>  <b_lp_Chiralities_Consistent>  (1) 
1

>  <s_lp_Variant>  (1) 
lig_35-1

>  <s_i_glide_gridfile>  (1) 
glide-grid_MCL1-4HW3

>  <i_i_glide_lignum>  (1) 
11

>  <i_i_glide_rotatable_bonds>  (1) 
6

>  <r_i_docking_score>  (1) 
-9.02347453125589

>  <r_i_glide_ligand_efficiency>  (1) 
-0.375978105468995

>  <r_i_glide_ligand_efficiency_sa>  (1) 
-1.08450852096643

>  <r_i_glide_ligand_efficiency_ln>  (1) 
-2.15973151559525

>  <r_i_glide_gscore>  (1) 
-9.02347453125589

>  <r_i_glide_lipo>  (1) 
-5.15894676804638

>  <r_i_glide_hbond>  (1) 
-0.420545604266378

>  <r_i_glide_metal>  (1) 
-0

>  <r_i_glide_rewards>  (1) 
-1.80085345427995

>  <r_i_glide_evdw>  (1) 
-41.7662124633789

>  <r_i_glide_ecoul>  (1) 
-3.1840341091156

>  <r_i_glide_erotb>  (1) 
0.968452154908552

>  <r_i_glide_esite>  (1) 
-0.0456651200354573

>  <r_i_glide_emodel>  (1) 
-76.4515871305577

>  <r_i_glide_energy>  (1) 
-44.9502465724945

>  <r_i_glide_einternal>  (1) 
1.61527526378632

>  <i_i_glide_confnum>  (1) 
5

>  <i_i_glide_posenum>  (1) 
22

>  <r_i_glide_eff_state_penalty>  (1) 
-0

>  <r_i_glide_rmsd>  (1) 
0.0801659943205655

>  <s_glide_core_constrain_type>  (1) 
snapped_core_restrain

$$$$
