lig_52
     RDKit          3D

 25 27  0  0  1  0  0  0  0  0999 V2000
   68.5252  -34.7634   27.1894 C   0  0  0  0  0  0  0  0  0  0  0  0
   69.0568  -35.4978   28.2676 C   0  0  0  0  0  0  0  0  0  0  0  0
   70.3964  -35.3071   28.6559 C   0  0  0  0  0  0  0  0  0  0  0  0
   71.2095  -34.3825   27.9795 C   0  0  0  0  0  0  0  0  0  0  0  0
   70.6719  -33.6599   26.9049 C   0  0  0  0  0  0  0  0  0  0  0  0
   69.3218  -33.8312   26.4819 C   0  0  0  0  0  0  0  0  0  0  0  0
   69.0937  -32.9429   25.3785 C   0  0  0  0  0  0  0  0  0  0  0  0
   70.2765  -32.2743   25.1420 C   0  0  0  0  0  0  0  0  0  0  0  0
   71.2061  -32.7033   26.0707 N   0  0  0  0  0  0  0  0  0  0  0  0
   70.7143  -31.2321   24.1770 C   0  0  0  0  0  0  0  0  0  0  0  0
   69.9998  -30.9353   23.1941 O   0  0  0  0  0  0  0  0  0  0  0  0
   71.8046  -30.6543   24.3750 O   0  0  0  0  0  0  0  0  0  0  0  0
   67.8031  -32.7133   24.6442 C   0  0  0  0  0  0  0  0  0  0  0  0
   67.1390  -31.3877   25.0585 C   0  0  0  0  0  0  0  0  0  0  0  0
   66.5244  -31.4287   26.4620 C   0  0  0  0  0  0  0  0  0  0  0  0
   65.3658  -32.2399   26.3782 O   0  0  0  0  0  0  0  0  0  0  0  0
   64.4938  -32.2539   27.4370 C   0  0  0  0  0  0  0  0  0  0  0  0
   63.1994  -32.7402   27.1787 C   0  0  0  0  0  0  0  0  0  0  0  0
   62.2618  -32.8548   28.2195 C   0  0  0  0  0  0  0  0  0  0  0  0
   62.6071  -32.4525   29.5232 C   0  0  0  0  0  0  0  0  0  0  0  0
   63.8837  -31.9081   29.7878 C   0  0  0  0  0  0  0  0  0  0  0  0
   64.8299  -31.8265   28.7440 C   0  0  0  0  0  0  0  0  0  0  0  0
   64.2530  -31.4187   31.1785 C   0  0  0  0  0  0  0  0  0  0  0  0
   61.4461  -32.6574   30.7782 Cl  0  0  0  0  0  0  0  0  0  0  0  0
   71.0458  -36.1894   29.9781 Cl  0  0  0  0  0  0  0  0  0  0  0  0
  1  6  2  0
  1  2  1  0
  2  3  2  0
  3  4  1  0
  3 25  1  0
  4  5  2  0
  5  9  1  0
  5  6  1  0
  6  7  1  0
  7  8  2  0
  7 13  1  0
  8  9  1  0
  8 10  1  0
 10 11  2  0
 10 12  1  0
 13 14  1  0
 14 15  1  0
 15 16  1  0
 16 17  1  0
 17 22  1  0
 17 18  2  0
 18 19  1  0
 19 20  2  0
 20 21  1  0
 20 24  1  0
 21 22  2  0
 21 23  1  0
M  CHG  1  12  -1
M  END
>  <s_m_source_file>  (1) 
ligprep_mcl1.smi

>  <i_m_source_file_index>  (1) 
28

>  <i_lp_mmshare_version>  (1) 
53161

>  <i_f3d_flags>  (1) 
0

>  <s_epik_input>  (1) 
W2NIXTFjKENsKVtjSF1bY0hdYyhjMTIpYyhjKFtuSF0yKUMoPU8pW09IXSlbQ0gyXVtDSDJdW0NIMl1PYzNbY0hdW2NIXWMoQ2wpYyhbY0hdMylbQ0gzXQ==

>  <s_epik_cmdline>  (1) 
J2VwaWtfcHl0aG9uJywgJy1waHQnLCAnMC4wJywgJy1waCcsICc3LjQnLCAnLXRuJywgJzgnLCAnLW1hJywgJzUwMCcsICctaW1hZScsICc8aW5maWxlLm1hZT4nLCAnLW9tYWUnLCAnPG91dGZpbGUubWFlPic=

>  <r_lp_tautomer_probability>  (1) 
1

>  <r_epik_Ionization_Penalty>  (1) 
  0.0003

>  <r_epik_Ionization_Penalty_Charging>  (1) 
  0.0003

>  <r_epik_Ionization_Penalty_Neutral>  (1) 
  0.0000

>  <r_epik_State_Penalty>  (1) 
 -0.0000

>  <r_epik_Charging_Adjusted_Penalty>  (1) 
0.000270667

>  <i_epik_Tot_Q>  (1) 
-1

>  <i_epik_Tot_abs_Q>  (1) 
1

>  <s_lp_Force_Field>  (1) 
S-OPLS

>  <r_lp_Energy>  (1) 
32.6583

>  <b_lp_Chiralities_Consistent>  (1) 
1

>  <s_lp_Variant>  (1) 
lig_52-1

>  <s_i_glide_gridfile>  (1) 
glide-grid_MCL1-4HW3

>  <i_i_glide_lignum>  (1) 
28

>  <i_i_glide_rotatable_bonds>  (1) 
6

>  <r_i_docking_score>  (1) 
-8.77825293635759

>  <r_i_glide_ligand_efficiency>  (1) 
-0.351130117454304

>  <r_i_glide_ligand_efficiency_sa>  (1) 
-1.02671069075553

>  <r_i_glide_ligand_efficiency_ln>  (1) 
-2.08070900892937

>  <r_i_glide_gscore>  (1) 
-8.77825293635759

>  <r_i_glide_lipo>  (1) 
-5.1109394440736

>  <r_i_glide_hbond>  (1) 
-0.386769041290954

>  <r_i_glide_metal>  (1) 
-0

>  <r_i_glide_rewards>  (1) 
-1.55784645575001

>  <r_i_glide_evdw>  (1) 
-40.2873229980469

>  <r_i_glide_ecoul>  (1) 
-3.14994215965271

>  <r_i_glide_erotb>  (1) 
0.816509876504559

>  <r_i_glide_esite>  (1) 
-0.052350397897336

>  <r_i_glide_emodel>  (1) 
-65.8585964786289

>  <r_i_glide_energy>  (1) 
-43.4372651576996

>  <r_i_glide_einternal>  (1) 
1.34690046310425

>  <i_i_glide_confnum>  (1) 
6

>  <i_i_glide_posenum>  (1) 
2

>  <r_i_glide_eff_state_penalty>  (1) 
-0

>  <r_i_glide_rmsd>  (1) 
0.103766722064457

>  <s_glide_core_constrain_type>  (1) 
snapped_core_restrain

$$$$
