lig_61
     RDKit          3D

 26 28  0  0  1  0  0  0  0  0999 V2000
   69.4938  -35.7944   28.7219 C   0  0  0  0  0  0  0  0  0  0  0  0
   70.5769  -35.0540   28.2205 C   0  0  0  0  0  0  0  0  0  0  0  0
   70.3849  -34.1457   27.1549 C   0  0  0  0  0  0  0  0  0  0  0  0
   69.1053  -33.9454   26.5567 C   0  0  0  0  0  0  0  0  0  0  0  0
   68.0550  -34.7035   27.1329 C   0  0  0  0  0  0  0  0  0  0  0  0
   68.2252  -35.6223   28.1695 C   0  0  0  0  0  0  0  0  0  0  0  0
   66.4957  -34.3849   26.6959 Cl  0  0  0  0  0  0  0  0  0  0  0  0
   69.1165  -32.9632   25.4738 C   0  0  0  0  0  0  0  0  0  0  0  0
   70.3983  -32.4640   25.2902 C   0  0  0  0  0  0  0  0  0  0  0  0
   71.5836  -33.1453   26.3726 S   0  0  0  0  0  0  0  0  0  0  0  0
   70.9324  -31.4513   24.3260 C   0  0  0  0  0  0  0  0  0  0  0  0
   70.2044  -30.9919   23.4300 O   0  0  0  0  0  0  0  0  0  0  0  0
   72.1162  -31.0685   24.4170 O   0  0  0  0  0  0  0  0  0  0  0  0
   67.9186  -32.5406   24.6477 C   0  0  0  0  0  0  0  0  0  0  0  0
   67.2802  -31.2201   25.1219 C   0  0  0  0  0  0  0  0  0  0  0  0
   66.5363  -31.2537   26.4726 C   0  0  0  0  0  0  0  0  0  0  0  0
   65.3362  -32.0038   26.3413 O   0  0  0  0  0  0  0  0  0  0  0  0
   64.4824  -32.0967   27.4132 C   0  0  0  0  0  0  0  0  0  0  0  0
   64.8003  -31.6692   28.7257 C   0  0  0  0  0  0  0  0  0  0  0  0
   63.8703  -31.8352   29.7718 C   0  0  0  0  0  0  0  0  0  0  0  0
   62.6173  -32.4456   29.5109 C   0  0  0  0  0  0  0  0  0  0  0  0
   62.2964  -32.8766   28.2052 C   0  0  0  0  0  0  0  0  0  0  0  0
   63.2274  -32.6902   27.1710 C   0  0  0  0  0  0  0  0  0  0  0  0
   60.9773  -33.5611   27.9027 C   0  0  0  0  0  0  0  0  0  0  0  0
   61.4724  -32.6546   30.7813 Cl  0  0  0  0  0  0  0  0  0  0  0  0
   64.2269  -31.3580   31.1623 C   0  0  0  0  0  0  0  0  0  0  0  0
  1  6  2  0
  1  2  1  0
  2  3  2  0
  3 10  1  0
  3  4  1  0
  4  5  2  0
  4  8  1  0
  5  6  1  0
  5  7  1  0
  8  9  2  0
  8 14  1  0
  9 10  1  0
  9 11  1  0
 11 12  2  0
 11 13  1  0
 14 15  1  0
 15 16  1  0
 16 17  1  0
 17 18  1  0
 18 23  1  0
 18 19  2  0
 19 20  1  0
 20 21  2  0
 20 26  1  0
 21 22  1  0
 21 25  1  0
 22 23  2  0
 22 24  1  0
M  CHG  1  13  -1
M  END
>  <s_m_source_file>  (1) 
ligprep_mcl1.smi

>  <i_m_source_file_index>  (1) 
35

>  <i_lp_mmshare_version>  (1) 
53161

>  <i_f3d_flags>  (1) 
0

>  <s_epik_input>  (1) 
W2NIXTFbY0hdW2NIXWMoQ2wpYyhjMTIpYyhjKHMyKUMoPU8pW09IXSlbQ0gyXVtDSDJdW0NIMl1PYzNbY0hdYyhbQ0gzXSljKENsKWMoW2NIXTMpW0NIM10=

>  <s_epik_cmdline>  (1) 
J2VwaWtfcHl0aG9uJywgJy1waHQnLCAnMC4wJywgJy1waCcsICc3LjQnLCAnLXRuJywgJzgnLCAnLW1hJywgJzUwMCcsICctaW1hZScsICc8aW5maWxlLm1hZT4nLCAnLW9tYWUnLCAnPG91dGZpbGUubWFlPic=

>  <r_lp_tautomer_probability>  (1) 
1

>  <r_epik_Ionization_Penalty>  (1) 
  0.0001

>  <r_epik_Ionization_Penalty_Charging>  (1) 
  0.0001

>  <r_epik_Ionization_Penalty_Neutral>  (1) 
  0.0000

>  <r_epik_State_Penalty>  (1) 
 -0.0000

>  <r_epik_Charging_Adjusted_Penalty>  (1) 
7.87387e-05

>  <i_epik_Tot_Q>  (1) 
-1

>  <i_epik_Tot_abs_Q>  (1) 
1

>  <s_lp_Force_Field>  (1) 
S-OPLS

>  <r_lp_Energy>  (1) 
42.6065

>  <b_lp_Chiralities_Consistent>  (1) 
1

>  <s_lp_Variant>  (1) 
lig_61-1

>  <s_i_glide_gridfile>  (1) 
glide-grid_MCL1-4HW3

>  <i_i_glide_lignum>  (1) 
35

>  <i_i_glide_rotatable_bonds>  (1) 
6

>  <r_i_docking_score>  (1) 
-9.36319462822258

>  <r_i_glide_ligand_efficiency>  (1) 
-0.360122870316253

>  <r_i_glide_ligand_efficiency_sa>  (1) 
-1.06686258629683

>  <r_i_glide_ligand_efficiency_ln>  (1) 
-2.19891553529061

>  <r_i_glide_gscore>  (1) 
-9.36319462822258

>  <r_i_glide_lipo>  (1) 
-5.86067964390259

>  <r_i_glide_hbond>  (1) 
-0.220475593229911

>  <r_i_glide_metal>  (1) 
-0

>  <r_i_glide_rewards>  (1) 
-1.52350059475153

>  <r_i_glide_evdw>  (1) 
-41.180721282959

>  <r_i_glide_ecoul>  (1) 
-2.4675395488739

>  <r_i_glide_erotb>  (1) 
0.708242865114977

>  <r_i_glide_esite>  (1) 
-0.0376146649744973

>  <r_i_glide_emodel>  (1) 
-72.9832139876723

>  <r_i_glide_energy>  (1) 
-43.6482608318329

>  <r_i_glide_einternal>  (1) 
-1.34983466182348e-07

>  <i_i_glide_confnum>  (1) 
1

>  <i_i_glide_posenum>  (1) 
1

>  <r_i_glide_eff_state_penalty>  (1) 
-0

>  <r_i_glide_rmsd>  (1) 
0.100505102592617

>  <s_glide_core_constrain_type>  (1) 
snapped_core_restrain

$$$$
