lig_50
     RDKit          3D

 26 28  0  0  1  0  0  0  0  0999 V2000
   70.6540  -35.4105   28.5450 C   0  0  0  0  0  0  0  0  0  0  0  0
   71.4487  -34.5709   27.7432 C   0  0  0  0  0  0  0  0  0  0  0  0
   70.8394  -33.7744   26.7586 C   0  0  0  0  0  0  0  0  0  0  0  0
   69.4330  -33.7950   26.5231 C   0  0  0  0  0  0  0  0  0  0  0  0
   68.6660  -34.6193   27.3788 C   0  0  0  0  0  0  0  0  0  0  0  0
   69.2605  -35.4183   28.3770 C   0  0  0  0  0  0  0  0  0  0  0  0
   66.9659  -34.6049   27.2198 Cl  0  0  0  0  0  0  0  0  0  0  0  0
   69.1447  -32.9091   25.4139 C   0  0  0  0  0  0  0  0  0  0  0  0
   70.3539  -32.3451   25.0542 C   0  0  0  0  0  0  0  0  0  0  0  0
   71.3475  -32.8622   25.8620 N   0  0  0  0  0  0  0  0  0  0  0  0
   70.7750  -31.3341   24.0531 C   0  0  0  0  0  0  0  0  0  0  0  0
   71.9337  -30.8618   24.1140 O   0  0  0  0  0  0  0  0  0  0  0  0
   69.9708  -30.9291   23.1914 O   0  0  0  0  0  0  0  0  0  0  0  0
   67.8398  -32.5915   24.7350 C   0  0  0  0  0  0  0  0  0  0  0  0
   67.2864  -31.2144   25.1389 C   0  0  0  0  0  0  0  0  0  0  0  0
   66.5772  -31.2324   26.4947 C   0  0  0  0  0  0  0  0  0  0  0  0
   65.3951  -32.0055   26.3511 O   0  0  0  0  0  0  0  0  0  0  0  0
   64.5425  -32.1121   27.4237 C   0  0  0  0  0  0  0  0  0  0  0  0
   64.8626  -31.7114   28.7422 C   0  0  0  0  0  0  0  0  0  0  0  0
   63.9187  -31.8653   29.7797 C   0  0  0  0  0  0  0  0  0  0  0  0
   62.6593  -32.4517   29.5103 C   0  0  0  0  0  0  0  0  0  0  0  0
   62.3378  -32.8645   28.1975 C   0  0  0  0  0  0  0  0  0  0  0  0
   63.2747  -32.6672   27.1661 C   0  0  0  0  0  0  0  0  0  0  0  0
   61.0205  -33.5466   27.8879 C   0  0  0  0  0  0  0  0  0  0  0  0
   61.5069  -32.6700   30.7779 Cl  0  0  0  0  0  0  0  0  0  0  0  0
   64.2649  -31.3976   31.1771 C   0  0  0  0  0  0  0  0  0  0  0  0
  1  6  2  0
  1  2  1  0
  2  3  2  0
  3 10  1  0
  3  4  1  0
  4  5  2  0
  4  8  1  0
  5  6  1  0
  5  7  1  0
  8  9  2  0
  8 14  1  0
  9 10  1  0
  9 11  1  0
 11 12  2  0
 11 13  1  0
 14 15  1  0
 15 16  1  0
 16 17  1  0
 17 18  1  0
 18 23  1  0
 18 19  2  0
 19 20  1  0
 20 21  2  0
 20 26  1  0
 21 22  1  0
 21 25  1  0
 22 23  2  0
 22 24  1  0
M  CHG  1  13  -1
M  END
>  <s_m_source_file>  (1) 
ligprep_mcl1.smi

>  <i_m_source_file_index>  (1) 
26

>  <i_lp_mmshare_version>  (1) 
53161

>  <i_f3d_flags>  (1) 
0

>  <s_epik_input>  (1) 
W2NIXTFbY0hdW2NIXWMoQ2wpYyhjMTIpYyhjKFtuSF0yKUMoPU8pW09IXSlbQ0gyXVtDSDJdW0NIMl1PYzNbY0hdYyhbQ0gzXSljKENsKWMoW2NIXTMpW0NIM10=

>  <s_epik_cmdline>  (1) 
J2VwaWtfcHl0aG9uJywgJy1waHQnLCAnMC4wJywgJy1waCcsICc3LjQnLCAnLXRuJywgJzgnLCAnLW1hJywgJzUwMCcsICctaW1hZScsICc8aW5maWxlLm1hZT4nLCAnLW9tYWUnLCAnPG91dGZpbGUubWFlPic=

>  <r_lp_tautomer_probability>  (1) 
1

>  <r_epik_Ionization_Penalty>  (1) 
  0.0002

>  <r_epik_Ionization_Penalty_Charging>  (1) 
  0.0002

>  <r_epik_Ionization_Penalty_Neutral>  (1) 
  0.0000

>  <r_epik_State_Penalty>  (1) 
 -0.0000

>  <r_epik_Charging_Adjusted_Penalty>  (1) 
0.000204149

>  <i_epik_Tot_Q>  (1) 
-1

>  <i_epik_Tot_abs_Q>  (1) 
1

>  <s_lp_Force_Field>  (1) 
S-OPLS

>  <r_lp_Energy>  (1) 
34.5573

>  <b_lp_Chiralities_Consistent>  (1) 
1

>  <s_lp_Variant>  (1) 
lig_50-1

>  <s_i_glide_gridfile>  (1) 
glide-grid_MCL1-4HW3

>  <i_i_glide_lignum>  (1) 
26

>  <i_i_glide_rotatable_bonds>  (1) 
6

>  <r_i_docking_score>  (1) 
-9.42872986281951

>  <r_i_glide_ligand_efficiency>  (1) 
-0.362643456262289

>  <r_i_glide_ligand_efficiency_sa>  (1) 
-1.07432981224393

>  <r_i_glide_ligand_efficiency_ln>  (1) 
-2.21430627009705

>  <r_i_glide_gscore>  (1) 
-9.42872986281951

>  <r_i_glide_lipo>  (1) 
-5.57804304857059

>  <r_i_glide_hbond>  (1) 
-0.328763715792209

>  <r_i_glide_metal>  (1) 
-0

>  <r_i_glide_rewards>  (1) 
-1.61337240305383

>  <r_i_glide_evdw>  (1) 
-44.4150810241699

>  <r_i_glide_ecoul>  (1) 
-2.68626403808594

>  <r_i_glide_erotb>  (1) 
0.764761618202668

>  <r_i_glide_esite>  (1) 
-0.0496186566841659

>  <r_i_glide_emodel>  (1) 
-76.0365093212978

>  <r_i_glide_energy>  (1) 
-47.1013450622559

>  <r_i_glide_einternal>  (1) 
4.68639898300171

>  <i_i_glide_confnum>  (1) 
6

>  <i_i_glide_posenum>  (1) 
21

>  <r_i_glide_eff_state_penalty>  (1) 
-0

>  <r_i_glide_rmsd>  (1) 
0.0992785565772248

>  <s_glide_core_constrain_type>  (1) 
snapped_core_restrain

$$$$
