lig_34
     RDKit          3D

 26 28  0  0  1  0  0  0  0  0999 V2000
   68.7928  -35.6363   28.1515 C   0  0  0  0  0  0  0  0  0  0  0  0
   70.1142  -35.5151   28.6235 C   0  0  0  0  0  0  0  0  0  0  0  0
   70.9874  -34.5828   28.0304 C   0  0  0  0  0  0  0  0  0  0  0  0
   70.5286  -33.7862   26.9644 C   0  0  0  0  0  0  0  0  0  0  0  0
   69.2025  -33.8955   26.4590 C   0  0  0  0  0  0  0  0  0  0  0  0
   68.3444  -34.8346   27.0818 C   0  0  0  0  0  0  0  0  0  0  0  0
   69.0542  -32.9484   25.3866 C   0  0  0  0  0  0  0  0  0  0  0  0
   70.2588  -32.2914   25.2554 C   0  0  0  0  0  0  0  0  0  0  0  0
   71.1281  -32.7974   26.2087 N   0  0  0  0  0  0  0  0  0  0  0  0
   70.7530  -31.1959   24.3778 C   0  0  0  0  0  0  0  0  0  0  0  0
   70.0787  -30.8159   23.3944 O   0  0  0  0  0  0  0  0  0  0  0  0
   71.8475  -30.6553   24.6463 O   0  0  0  0  0  0  0  0  0  0  0  0
   67.8026  -32.6559   24.6079 C   0  0  0  0  0  0  0  0  0  0  0  0
   67.1375  -31.3414   25.0562 C   0  0  0  0  0  0  0  0  0  0  0  0
   66.5009  -31.4145   26.4502 C   0  0  0  0  0  0  0  0  0  0  0  0
   65.3380  -32.2209   26.3521 O   0  0  0  0  0  0  0  0  0  0  0  0
   64.4729  -32.2537   27.4171 C   0  0  0  0  0  0  0  0  0  0  0  0
   64.8247  -31.8522   28.7260 C   0  0  0  0  0  0  0  0  0  0  0  0
   63.8936  -31.9811   29.7718 C   0  0  0  0  0  0  0  0  0  0  0  0
   62.6133  -32.5262   29.5320 C   0  0  0  0  0  0  0  0  0  0  0  0
   62.2473  -32.8907   28.2208 C   0  0  0  0  0  0  0  0  0  0  0  0
   63.1754  -32.7480   27.1737 C   0  0  0  0  0  0  0  0  0  0  0  0
   61.6543  -32.7585   30.6832 C   0  0  0  0  0  0  0  0  0  0  0  0
   61.8456  -33.9719   31.1781 F   0  0  0  0  0  0  0  0  0  0  0  0
   60.3934  -32.7036   30.2824 F   0  0  0  0  0  0  0  0  0  0  0  0
   61.8464  -31.8543   31.6406 F   0  0  0  0  0  0  0  0  0  0  0  0
  1  6  2  0
  1  2  1  0
  2  3  2  0
  3  4  1  0
  4  9  1  0
  4  5  2  0
  5  6  1  0
  5  7  1  0
  7  8  2  0
  7 13  1  0
  8  9  1  0
  8 10  1  0
 10 11  2  0
 10 12  1  0
 13 14  1  0
 14 15  1  0
 15 16  1  0
 16 17  1  0
 17 22  1  0
 17 18  2  0
 18 19  1  0
 19 20  2  0
 20 21  1  0
 20 23  1  0
 21 22  2  0
 23 24  1  0
 23 25  1  0
 23 26  1  0
M  CHG  1  12  -1
M  END
>  <s_m_source_file>  (1) 
ligprep_mcl1.smi

>  <i_m_source_file_index>  (1) 
10

>  <i_lp_mmshare_version>  (1) 
53161

>  <i_f3d_flags>  (1) 
0

>  <s_epik_input>  (1) 
W2NIXTFbY0hdW2NIXVtjSF1jKGMxMiljKGMoW25IXTIpQyg9TylbT0hdKVtDSDJdW0NIMl1bQ0gyXU9jM1tjSF1bY0hdYyhDKEYpKEYpRilbY0hdW2NIXTM=

>  <s_epik_cmdline>  (1) 
J2VwaWtfcHl0aG9uJywgJy1waHQnLCAnMC4wJywgJy1waCcsICc3LjQnLCAnLXRuJywgJzgnLCAnLW1hJywgJzUwMCcsICctaW1hZScsICc8aW5maWxlLm1hZT4nLCAnLW9tYWUnLCAnPG91dGZpbGUubWFlPic=

>  <r_lp_tautomer_probability>  (1) 
1

>  <r_epik_Ionization_Penalty>  (1) 
  0.0005

>  <r_epik_Ionization_Penalty_Charging>  (1) 
  0.0005

>  <r_epik_Ionization_Penalty_Neutral>  (1) 
  0.0000

>  <r_epik_State_Penalty>  (1) 
 -0.0000

>  <r_epik_Charging_Adjusted_Penalty>  (1) 
0.000454155

>  <i_epik_Tot_Q>  (1) 
-1

>  <i_epik_Tot_abs_Q>  (1) 
1

>  <s_lp_Force_Field>  (1) 
S-OPLS

>  <r_lp_Energy>  (1) 
33.8944

>  <b_lp_Chiralities_Consistent>  (1) 
1

>  <s_lp_Variant>  (1) 
lig_34-1

>  <s_i_glide_gridfile>  (1) 
glide-grid_MCL1-4HW3

>  <i_i_glide_lignum>  (1) 
10

>  <i_i_glide_rotatable_bonds>  (1) 
7

>  <r_i_docking_score>  (1) 
-9.02455292953072

>  <r_i_glide_ligand_efficiency>  (1) 
-0.347098189597335

>  <r_i_glide_ligand_efficiency_sa>  (1) 
-1.02827702091668

>  <r_i_glide_ligand_efficiency_ln>  (1) 
-2.11938664352687

>  <r_i_glide_gscore>  (1) 
-9.02455292953072

>  <r_i_glide_lipo>  (1) 
-4.81065359284811

>  <r_i_glide_hbond>  (1) 
-0.397676635603822

>  <r_i_glide_metal>  (1) 
-0

>  <r_i_glide_rewards>  (1) 
-2.49547862624787

>  <r_i_glide_evdw>  (1) 
-35.7155113220215

>  <r_i_glide_ecoul>  (1) 
-3.4004864692688

>  <r_i_glide_erotb>  (1) 
1.02382038153534

>  <r_i_glide_esite>  (1) 
-0.048715919874865

>  <r_i_glide_emodel>  (1) 
-65.3940236370649

>  <r_i_glide_energy>  (1) 
-39.1159977912903

>  <r_i_glide_einternal>  (1) 
3.49401903152466

>  <i_i_glide_confnum>  (1) 
13

>  <i_i_glide_posenum>  (1) 
37

>  <r_i_glide_eff_state_penalty>  (1) 
-0

>  <r_i_glide_rmsd>  (1) 
0.103779631730213

>  <s_glide_core_constrain_type>  (1) 
snapped_core_restrain

$$$$
