lig_33
     RDKit          3D

 23 25  0  0  1  0  0  0  0  0999 V2000
   68.7145  -35.7044   28.0770 C   0  0  0  0  0  0  0  0  0  0  0  0
   70.0287  -35.6093   28.5751 C   0  0  0  0  0  0  0  0  0  0  0  0
   70.9205  -34.6695   28.0253 C   0  0  0  0  0  0  0  0  0  0  0  0
   70.4899  -33.8368   26.9747 C   0  0  0  0  0  0  0  0  0  0  0  0
   69.1719  -33.9197   26.4423 C   0  0  0  0  0  0  0  0  0  0  0  0
   68.2940  -34.8693   27.0228 C   0  0  0  0  0  0  0  0  0  0  0  0
   69.0516  -32.9435   25.3907 C   0  0  0  0  0  0  0  0  0  0  0  0
   70.2620  -32.2915   25.3022 C   0  0  0  0  0  0  0  0  0  0  0  0
   71.1096  -32.8306   26.2597 N   0  0  0  0  0  0  0  0  0  0  0  0
   70.7820  -31.1764   24.4639 C   0  0  0  0  0  0  0  0  0  0  0  0
   71.8782  -30.6561   24.7675 O   0  0  0  0  0  0  0  0  0  0  0  0
   70.1279  -30.7602   23.4798 O   0  0  0  0  0  0  0  0  0  0  0  0
   67.8174  -32.6361   24.5919 C   0  0  0  0  0  0  0  0  0  0  0  0
   67.1495  -31.3251   25.0477 C   0  0  0  0  0  0  0  0  0  0  0  0
   66.5419  -31.3943   26.4568 C   0  0  0  0  0  0  0  0  0  0  0  0
   65.3941  -32.2183   26.3781 O   0  0  0  0  0  0  0  0  0  0  0  0
   64.5274  -32.2441   27.4406 C   0  0  0  0  0  0  0  0  0  0  0  0
   64.8668  -31.8338   28.7536 C   0  0  0  0  0  0  0  0  0  0  0  0
   63.9237  -31.9568   29.7913 C   0  0  0  0  0  0  0  0  0  0  0  0
   62.6413  -32.4690   29.5172 C   0  0  0  0  0  0  0  0  0  0  0  0
   62.2851  -32.8409   28.2101 C   0  0  0  0  0  0  0  0  0  0  0  0
   63.2316  -32.7294   27.1778 C   0  0  0  0  0  0  0  0  0  0  0  0
   61.4896  -32.6528   30.7781 Cl  0  0  0  0  0  0  0  0  0  0  0  0
  1  6  2  0
  1  2  1  0
  2  3  2  0
  3  4  1  0
  4  9  1  0
  4  5  2  0
  5  6  1  0
  5  7  1  0
  7  8  2  0
  7 13  1  0
  8  9  1  0
  8 10  1  0
 10 11  2  0
 10 12  1  0
 13 14  1  0
 14 15  1  0
 15 16  1  0
 16 17  1  0
 17 22  1  0
 17 18  2  0
 18 19  1  0
 19 20  2  0
 20 21  1  0
 20 23  1  0
 21 22  2  0
M  CHG  1  12  -1
M  END
>  <s_m_source_file>  (1) 
ligprep_mcl1.smi

>  <i_m_source_file_index>  (1) 
9

>  <i_lp_mmshare_version>  (1) 
53161

>  <i_f3d_flags>  (1) 
0

>  <s_epik_input>  (1) 
W2NIXTFbY0hdW2NIXVtjSF1jKGMxMiljKGMoW25IXTIpQyg9TylbT0hdKVtDSDJdW0NIMl1bQ0gyXU9jM1tjSF1bY0hdYyhDbClbY0hdW2NIXTM=

>  <s_epik_cmdline>  (1) 
J2VwaWtfcHl0aG9uJywgJy1waHQnLCAnMC4wJywgJy1waCcsICc3LjQnLCAnLXRuJywgJzgnLCAnLW1hJywgJzUwMCcsICctaW1hZScsICc8aW5maWxlLm1hZT4nLCAnLW9tYWUnLCAnPG91dGZpbGUubWFlPic=

>  <r_lp_tautomer_probability>  (1) 
1

>  <r_epik_Ionization_Penalty>  (1) 
  0.0005

>  <r_epik_Ionization_Penalty_Charging>  (1) 
  0.0005

>  <r_epik_Ionization_Penalty_Neutral>  (1) 
  0.0000

>  <r_epik_State_Penalty>  (1) 
 -0.0000

>  <r_epik_Charging_Adjusted_Penalty>  (1) 
0.000518745

>  <i_epik_Tot_Q>  (1) 
-1

>  <i_epik_Tot_abs_Q>  (1) 
1

>  <s_lp_Force_Field>  (1) 
S-OPLS

>  <r_lp_Energy>  (1) 
33.2994

>  <b_lp_Chiralities_Consistent>  (1) 
1

>  <s_lp_Variant>  (1) 
lig_33-1

>  <s_i_glide_gridfile>  (1) 
glide-grid_MCL1-4HW3

>  <i_i_glide_lignum>  (1) 
9

>  <i_i_glide_rotatable_bonds>  (1) 
6

>  <r_i_docking_score>  (1) 
-8.52263787200663

>  <r_i_glide_ligand_efficiency>  (1) 
-0.370549472695941

>  <r_i_glide_ligand_efficiency_sa>  (1) 
-1.05379340870001

>  <r_i_glide_ligand_efficiency_ln>  (1) 
-2.06085111645883

>  <r_i_glide_gscore>  (1) 
-8.52263787200663

>  <r_i_glide_lipo>  (1) 
-4.83971167619644

>  <r_i_glide_hbond>  (1) 
-0.434368796873285

>  <r_i_glide_metal>  (1) 
-0

>  <r_i_glide_rewards>  (1) 
-1.81423956149484

>  <r_i_glide_evdw>  (1) 
-39.2391662597656

>  <r_i_glide_ecoul>  (1) 
-3.11091017723083

>  <r_i_glide_erotb>  (1) 
1.04280329696995

>  <r_i_glide_esite>  (1) 
-0.0485262948391015

>  <r_i_glide_emodel>  (1) 
-71.1444389926518

>  <r_i_glide_energy>  (1) 
-42.3500764369965

>  <r_i_glide_einternal>  (1) 
0.416949421167374

>  <i_i_glide_confnum>  (1) 
2

>  <i_i_glide_posenum>  (1) 
24

>  <r_i_glide_eff_state_penalty>  (1) 
-0

>  <r_i_glide_rmsd>  (1) 
0.0924209147072243

>  <s_glide_core_constrain_type>  (1) 
snapped_core_restrain

$$$$
