lig_63
     RDKit          3D

 26 28  0  0  1  0  0  0  0  0999 V2000
   67.9190  -34.5696   27.0416 C   0  0  0  0  0  0  0  0  0  0  0  0
   68.0750  -35.4746   28.0823 C   0  0  0  0  0  0  0  0  0  0  0  0
   69.3453  -35.6808   28.6137 C   0  0  0  0  0  0  0  0  0  0  0  0
   70.4647  -34.9400   28.1857 C   0  0  0  0  0  0  0  0  0  0  0  0
   70.2890  -34.0350   27.1383 C   0  0  0  0  0  0  0  0  0  0  0  0
   69.0145  -33.8379   26.5198 C   0  0  0  0  0  0  0  0  0  0  0  0
   69.0708  -32.9001   25.4290 C   0  0  0  0  0  0  0  0  0  0  0  0
   70.3543  -32.4131   25.2558 C   0  0  0  0  0  0  0  0  0  0  0  0
   71.5215  -33.0692   26.3845 S   0  0  0  0  0  0  0  0  0  0  0  0
   70.9014  -31.4338   24.2875 C   0  0  0  0  0  0  0  0  0  0  0  0
   70.1632  -30.9806   23.3856 O   0  0  0  0  0  0  0  0  0  0  0  0
   72.0856  -31.0507   24.3977 O   0  0  0  0  0  0  0  0  0  0  0  0
   67.8553  -32.5315   24.6308 C   0  0  0  0  0  0  0  0  0  0  0  0
   67.2374  -31.2010   25.0944 C   0  0  0  0  0  0  0  0  0  0  0  0
   66.5701  -31.2624   26.4776 C   0  0  0  0  0  0  0  0  0  0  0  0
   65.4230  -32.0872   26.3728 O   0  0  0  0  0  0  0  0  0  0  0  0
   64.5534  -32.1522   27.4354 C   0  0  0  0  0  0  0  0  0  0  0  0
   63.2877  -32.7100   27.1768 C   0  0  0  0  0  0  0  0  0  0  0  0
   62.3366  -32.8749   28.2013 C   0  0  0  0  0  0  0  0  0  0  0  0
   62.6473  -32.4435   29.5103 C   0  0  0  0  0  0  0  0  0  0  0  0
   63.9043  -31.8521   29.7809 C   0  0  0  0  0  0  0  0  0  0  0  0
   64.8549  -31.7143   28.7459 C   0  0  0  0  0  0  0  0  0  0  0  0
   64.2498  -31.3684   31.1781 C   0  0  0  0  0  0  0  0  0  0  0  0
   61.4942  -32.6559   30.7792 Cl  0  0  0  0  0  0  0  0  0  0  0  0
   61.0138  -33.5502   27.8862 C   0  0  0  0  0  0  0  0  0  0  0  0
   69.4456  -37.0176   29.5782 Cl  0  0  0  0  0  0  0  0  0  0  0  0
  1  6  2  0
  1  2  1  0
  2  3  2  0
  3  4  1  0
  3 26  1  0
  4  5  2  0
  5  9  1  0
  5  6  1  0
  6  7  1  0
  7  8  2  0
  7 13  1  0
  8  9  1  0
  8 10  1  0
 10 11  2  0
 10 12  1  0
 13 14  1  0
 14 15  1  0
 15 16  1  0
 16 17  1  0
 17 22  1  0
 17 18  2  0
 18 19  1  0
 19 20  2  0
 19 25  1  0
 20 21  1  0
 20 24  1  0
 21 22  2  0
 21 23  1  0
M  CHG  1  12  -1
M  END
>  <s_m_source_file>  (1) 
ligprep_mcl1.smi

>  <i_m_source_file_index>  (1) 
37

>  <i_lp_mmshare_version>  (1) 
53161

>  <i_f3d_flags>  (1) 
0

>  <s_epik_input>  (1) 
W2NIXTFjKENsKVtjSF1bY0hdYyhjMTIpYyhjKHMyKUMoPU8pW09IXSlbQ0gyXVtDSDJdW0NIMl1PYzNbY0hdYyhbQ0gzXSljKENsKWMoW2NIXTMpW0NIM10=

>  <s_epik_cmdline>  (1) 
J2VwaWtfcHl0aG9uJywgJy1waHQnLCAnMC4wJywgJy1waCcsICc3LjQnLCAnLXRuJywgJzgnLCAnLW1hJywgJzUwMCcsICctaW1hZScsICc8aW5maWxlLm1hZT4nLCAnLW9tYWUnLCAnPG91dGZpbGUubWFlPic=

>  <r_lp_tautomer_probability>  (1) 
1

>  <r_epik_Ionization_Penalty>  (1) 
  0.0001

>  <r_epik_Ionization_Penalty_Charging>  (1) 
  0.0001

>  <r_epik_Ionization_Penalty_Neutral>  (1) 
  0.0000

>  <r_epik_State_Penalty>  (1) 
 -0.0000

>  <r_epik_Charging_Adjusted_Penalty>  (1) 
9.09346e-05

>  <i_epik_Tot_Q>  (1) 
-1

>  <i_epik_Tot_abs_Q>  (1) 
1

>  <s_lp_Force_Field>  (1) 
S-OPLS

>  <r_lp_Energy>  (1) 
35.9798

>  <b_lp_Chiralities_Consistent>  (1) 
1

>  <s_lp_Variant>  (1) 
lig_63-1

>  <s_i_glide_gridfile>  (1) 
glide-grid_MCL1-4HW3

>  <i_i_glide_lignum>  (1) 
37

>  <i_i_glide_rotatable_bonds>  (1) 
6

>  <r_i_docking_score>  (1) 
-8.6529379917974

>  <r_i_glide_ligand_efficiency>  (1) 
-0.332805307376823

>  <r_i_glide_ligand_efficiency_sa>  (1) 
-0.985934413578188

>  <r_i_glide_ligand_efficiency_ln>  (1) 
-2.03211409476826

>  <r_i_glide_gscore>  (1) 
-8.6529379917974

>  <r_i_glide_lipo>  (1) 
-5.69648402815472

>  <r_i_glide_hbond>  (1) 
-0.232965955763248

>  <r_i_glide_metal>  (1) 
-0

>  <r_i_glide_rewards>  (1) 
-1.50357256079788

>  <r_i_glide_evdw>  (1) 
-31.0384998321533

>  <r_i_glide_ecoul>  (1) 
-2.25193166732788

>  <r_i_glide_erotb>  (1) 
0.708242865114977

>  <r_i_glide_esite>  (1) 
-0.0384435704896766

>  <r_i_glide_emodel>  (1) 
-47.0950647485723

>  <r_i_glide_energy>  (1) 
-33.2904314994812

>  <r_i_glide_einternal>  (1) 
1.40888332111899e-07

>  <i_i_glide_confnum>  (1) 
2

>  <i_i_glide_posenum>  (1) 
2

>  <r_i_glide_eff_state_penalty>  (1) 
-0

>  <r_i_glide_rmsd>  (1) 
0.103920290338666

>  <s_glide_core_constrain_type>  (1) 
snapped_core_restrain

$$$$
