lig_CHEMBL3264998
     RDKit          3D

 39 43  0  0  1  0  0  0  0  0999 V2000
    5.6504   -0.4968   16.4417 C   0  0  0  0  0  0  0  0  0  0  0  0
    5.9071    0.4242   15.4680 C   0  0  0  0  0  0  0  0  0  0  0  0
    4.7536    0.5233   14.7233 N   0  0  0  0  0  0  0  0  0  0  0  0
    3.8347   -0.4046   15.2624 C   0  0  0  0  0  0  0  0  0  0  0  0
    4.3864   -1.0495   16.2882 N   0  0  0  0  0  0  0  0  0  0  0  0
    2.5403   -0.4467   14.6647 C   0  0  0  0  0  0  0  0  0  0  0  0
    1.6112   -1.3476   15.2128 N   0  0  0  0  0  0  0  0  0  0  0  0
    0.2359   -1.5537   15.0101 C   0  0  0  0  0  0  0  0  0  0  0  0
   -0.3614   -2.5901   15.7591 C   0  0  0  0  0  0  0  0  0  0  0  0
   -1.7387   -2.8577   15.6497 C   0  0  0  0  0  0  0  0  0  0  0  0
   -2.5419   -2.0939   14.7824 C   0  0  0  0  0  0  0  0  0  0  0  0
   -3.8832   -2.3676   14.6967 O   0  0  0  0  0  0  0  0  0  0  0  0
   -4.2268   -3.1241   13.5471 C   0  0  0  0  0  0  0  0  0  0  0  0
   -1.9736   -1.0452   14.0292 C   0  0  0  0  0  0  0  0  0  0  0  0
   -2.8271   -0.3122   13.2282 O   0  0  0  0  0  0  0  0  0  0  0  0
   -2.2601    0.6702   12.3723 C   0  0  0  0  0  0  0  0  0  0  0  0
   -0.5827   -0.7902   14.1434 C   0  0  0  0  0  0  0  0  0  0  0  0
    2.2243    0.3369   13.6722 N   0  0  0  0  0  0  0  0  0  0  0  0
    3.1472    1.2474   13.1991 C   0  0  0  0  0  0  0  0  0  0  0  0
    2.6913    2.1409   12.1166 C   0  0  0  0  0  0  0  0  0  0  0  0
    3.6011    2.6096   11.1407 C   0  0  0  0  0  0  0  0  0  0  0  0
    3.1737    3.4359   10.0868 C   0  0  0  0  0  0  0  0  0  0  0  0
    1.8205    3.8037    9.9896 C   0  0  0  0  0  0  0  0  0  0  0  0
    0.8954    3.3670   10.9619 C   0  0  0  0  0  0  0  0  0  0  0  0
   -0.5576    3.7031   10.8112 C   0  0  0  0  0  0  0  0  0  0  0  0
   -1.0836    3.6441    9.7005 O   0  0  0  0  0  0  0  0  0  0  0  0
   -1.1778    4.0981   11.9388 N   0  0  0  0  0  0  0  0  0  0  0  0
   -2.5296    4.5207   12.0932 C   0  0  0  0  0  0  0  0  0  0  0  0
   -3.5785    4.1082   11.2372 C   0  0  0  0  0  0  0  0  0  0  0  0
   -4.8882    4.5885   11.4286 C   0  0  0  0  0  0  0  0  0  0  0  0
   -5.1812    5.4603   12.4976 C   0  0  0  0  0  0  0  0  0  0  0  0
   -6.6161    5.9215   12.7304 C   0  0  0  0  0  0  0  0  0  0  0  0
   -6.7422    7.4370   12.5379 C   0  0  0  0  0  0  0  0  0  0  0  0
   -7.3720    7.8416   11.5371 O   0  0  0  0  0  0  0  0  0  0  0  0
   -6.2505    8.1683   13.4258 O   0  0  0  0  0  0  0  0  0  0  0  0
   -4.1470    5.8293   13.3843 C   0  0  0  0  0  0  0  0  0  0  0  0
   -2.8314    5.3716   13.1767 C   0  0  0  0  0  0  0  0  0  0  0  0
    1.3410    2.5484   12.0241 C   0  0  0  0  0  0  0  0  0  0  0  0
    4.4235    1.3406   13.6981 C   0  0  0  0  0  0  0  0  0  0  0  0
  1  5  1  0
  1  2  2  0
  2  3  1  0
  3 39  1  0
  3  4  1  0
  4  5  2  0
  4  6  1  0
  6  7  1  0
  6 18  2  0
  7  8  1  0
  8 17  1  0
  8  9  2  0
  9 10  1  0
 10 11  2  0
 11 12  1  0
 11 14  1  0
 12 13  1  0
 14 15  1  0
 14 17  2  0
 15 16  1  0
 18 19  1  0
 19 20  1  0
 19 39  2  0
 20 38  1  0
 20 21  2  0
 21 22  1  0
 22 23  2  0
 23 24  1  0
 24 25  1  0
 24 38  2  0
 25 26  2  0
 25 27  1  0
 27 28  1  0
 28 37  1  0
 28 29  2  0
 29 30  1  0
 30 31  2  0
 31 32  1  0
 31 36  1  0
 32 33  1  0
 33 34  2  0
 33 35  1  0
 36 37  2  0
M  CHG  1  35  -1
M  END
>  <s_m_source_file>  (1) 
ligprep_syk.smi

>  <i_m_source_file_index>  (1) 
6

>  <i_lp_mmshare_version>  (1) 
53161

>  <i_f3d_flags>  (1) 
0

>  <s_epik_input>  (1) 
W0NIM11PYyhbY0hdMSljKE9bQ0gzXSlbY0hdW2NIXWMxW05IXWMoYyhuMjMpbltjSF1bY0hdMiluYyhbY0hdMyktYzRbY0hdW2NIXVtjSF1jKFtjSF00KUMoPU8pW05IXWM1W2NIXVtjSF1jKFtjSF1bY0hdNSlbQ0gyXUMoPU8pW09IXQ==

>  <s_epik_cmdline>  (1) 
J2VwaWtfcHl0aG9uJywgJy1waHQnLCAnMC4wJywgJy1waCcsICc3LjQnLCAnLXRuJywgJzgnLCAnLW1hJywgJzUwMCcsICctaW1hZScsICc8aW5maWxlLm1hZT4nLCAnLW9tYWUnLCAnPG91dGZpbGUubWFlPic=

>  <r_lp_tautomer_probability>  (1) 
1

>  <r_epik_Ionization_Penalty>  (1) 
  0.0013

>  <r_epik_Ionization_Penalty_Charging>  (1) 
  0.0013

>  <r_epik_Ionization_Penalty_Neutral>  (1) 
  0.0000

>  <r_epik_State_Penalty>  (1) 
 -0.0000

>  <r_epik_Charging_Adjusted_Penalty>  (1) 
0.00128141

>  <i_epik_Tot_Q>  (1) 
-1

>  <i_epik_Tot_abs_Q>  (1) 
1

>  <s_lp_Force_Field>  (1) 
S-OPLS

>  <r_lp_Energy>  (1) 
60.4358

>  <b_lp_Chiralities_Consistent>  (1) 
1

>  <s_lp_Variant>  (1) 
lig_CHEMBL3264998-1

>  <s_i_glide_gridfile>  (1) 
glide-grid_SYK-4PV0

>  <i_i_glide_lignum>  (1) 
6

>  <i_i_glide_rotatable_bonds>  (1) 
10

>  <r_i_docking_score>  (1) 
-9.30527701177956

>  <r_i_glide_ligand_efficiency>  (1) 
-0.238596846455886

>  <r_i_glide_ligand_efficiency_sa>  (1) 
-0.809132354980193

>  <r_i_glide_ligand_efficiency_ln>  (1) 
-1.9953155373216

>  <r_i_glide_gscore>  (1) 
-9.30527701177956

>  <r_i_glide_lipo>  (1) 
-2.9972218158416

>  <r_i_glide_hbond>  (1) 
-0.715306586544314

>  <r_i_glide_metal>  (1) 
-0

>  <r_i_glide_rewards>  (1) 
-1.39873059636768

>  <r_i_glide_evdw>  (1) 
-54.6248664855957

>  <r_i_glide_ecoul>  (1) 
-14.4717102050781

>  <r_i_glide_erotb>  (1) 
0.753169093802229

>  <r_i_glide_esite>  (1) 
-0.0451872517866926

>  <r_i_glide_emodel>  (1) 
-113.709251156472

>  <r_i_glide_energy>  (1) 
-69.0965766906738

>  <r_i_glide_einternal>  (1) 
0.710674166679382

>  <i_i_glide_confnum>  (1) 
14

>  <i_i_glide_posenum>  (1) 
14

>  <r_i_glide_eff_state_penalty>  (1) 
-0

>  <r_i_glide_rmsd>  (1) 
0.0674196692120644

>  <s_glide_core_constrain_type>  (1) 
snapped_core_restrain

$$$$
