lig_CHEMBL3265022
     RDKit          3D

 30 34  0  0  1  0  0  0  0  0999 V2000
    1.1112    4.7479    9.0991 C   0  0  0  0  0  0  0  0  0  0  0  0
   -0.1399    4.8428    9.4753 N   0  0  0  0  0  0  0  0  0  0  0  0
   -0.2499    4.0891   10.6002 N   0  0  0  0  0  0  0  0  0  0  0  0
   -1.5397    4.0379   11.2529 C   0  0  0  0  0  0  0  0  0  0  0  0
    0.9418    3.4741   10.9670 C   0  0  0  0  0  0  0  0  0  0  0  0
    1.3256    2.6160   12.0173 C   0  0  0  0  0  0  0  0  0  0  0  0
    2.6592    2.1501   12.0991 C   0  0  0  0  0  0  0  0  0  0  0  0
    3.1102    1.2533   13.1854 C   0  0  0  0  0  0  0  0  0  0  0  0
    4.3917    1.3426   13.6727 C   0  0  0  0  0  0  0  0  0  0  0  0
    4.7300    0.5296   14.6992 N   0  0  0  0  0  0  0  0  0  0  0  0
    3.8206   -0.4012   15.2434 C   0  0  0  0  0  0  0  0  0  0  0  0
    4.3797   -1.0464   16.2686 N   0  0  0  0  0  0  0  0  0  0  0  0
    5.6442   -0.4898   16.4138 C   0  0  0  0  0  0  0  0  0  0  0  0
    5.8909    0.4325   15.4378 C   0  0  0  0  0  0  0  0  0  0  0  0
    2.5243   -0.4458   14.6526 C   0  0  0  0  0  0  0  0  0  0  0  0
    1.6140   -1.3622   15.2108 N   0  0  0  0  0  0  0  0  0  0  0  0
    0.2396   -1.5941   15.0272 C   0  0  0  0  0  0  0  0  0  0  0  0
   -0.3362   -2.6286   15.7940 C   0  0  0  0  0  0  0  0  0  0  0  0
   -1.7087   -2.9204   15.6940 C   0  0  0  0  0  0  0  0  0  0  0  0
   -2.5283   -2.1856   14.8169 C   0  0  0  0  0  0  0  0  0  0  0  0
   -3.8651   -2.4816   14.7441 O   0  0  0  0  0  0  0  0  0  0  0  0
   -4.2266   -3.1881   13.5682 C   0  0  0  0  0  0  0  0  0  0  0  0
   -1.9797   -1.1357   14.0485 C   0  0  0  0  0  0  0  0  0  0  0  0
   -2.8417   -0.4289   13.2346 O   0  0  0  0  0  0  0  0  0  0  0  0
   -2.2861    0.5854   12.4159 C   0  0  0  0  0  0  0  0  0  0  0  0
   -0.5938   -0.8514   14.1596 C   0  0  0  0  0  0  0  0  0  0  0  0
    2.1906    0.3447   13.6694 N   0  0  0  0  0  0  0  0  0  0  0  0
    3.5785    2.5808   11.1114 C   0  0  0  0  0  0  0  0  0  0  0  0
    3.1910    3.4398   10.0659 C   0  0  0  0  0  0  0  0  0  0  0  0
    1.8616    3.9017    9.9723 C   0  0  0  0  0  0  0  0  0  0  0  0
  1 30  1  0
  1  2  2  0
  2  3  1  0
  3  4  1  0
  3  5  1  0
  5 30  2  0
  5  6  1  0
  6  7  2  0
  7  8  1  0
  7 28  1  0
  8 27  1  0
  8  9  2  0
  9 10  1  0
 10 14  1  0
 10 11  1  0
 11 12  2  0
 11 15  1  0
 12 13  1  0
 13 14  2  0
 15 16  1  0
 15 27  2  0
 16 17  1  0
 17 26  1  0
 17 18  2  0
 18 19  1  0
 19 20  2  0
 20 21  1  0
 20 23  1  0
 21 22  1  0
 23 24  1  0
 23 26  2  0
 24 25  1  0
 28 29  2  0
 29 30  1  0
M  END
>  <s_m_source_file>  (1) 
ligprep_syk.smi

>  <i_m_source_file_index>  (1) 
29

>  <i_lp_mmshare_version>  (1) 
53161

>  <i_f3d_flags>  (1) 
0

>  <s_epik_input>  (1) 
W0NIM11uMW5bY0hdYyhjMTIpW2NIXVtjSF1jKFtjSF0yKS1jKFtjSF0zKW5jKGMobjM0KW5bY0hdW2NIXTQpW05IXWM1W2NIXVtjSF1jKE9bQ0gzXSljKFtjSF01KU9bQ0gzXQ==

>  <s_epik_cmdline>  (1) 
J2VwaWtfcHl0aG9uJywgJy1waHQnLCAnMC4wJywgJy1waCcsICc3LjQnLCAnLXRuJywgJzgnLCAnLW1hJywgJzUwMCcsICctaW1hZScsICc8aW5maWxlLm1hZT4nLCAnLW9tYWUnLCAnPG91dGZpbGUubWFlPic=

>  <r_lp_tautomer_probability>  (1) 
1

>  <r_epik_Ionization_Penalty>  (1) 
  0.0009

>  <r_epik_Ionization_Penalty_Charging>  (1) 
  0.0009

>  <r_epik_Ionization_Penalty_Neutral>  (1) 
  0.0000

>  <r_epik_State_Penalty>  (1) 
 -0.0000

>  <r_epik_Charging_Adjusted_Penalty>  (1) 
0.000851558

>  <i_epik_Tot_Q>  (1) 
0

>  <i_epik_Tot_abs_Q>  (1) 
0

>  <s_lp_Force_Field>  (1) 
S-OPLS

>  <r_lp_Energy>  (1) 
44.3348

>  <b_lp_Chiralities_Consistent>  (1) 
1

>  <s_lp_Variant>  (1) 
lig_CHEMBL3265022-1

>  <s_i_glide_gridfile>  (1) 
glide-grid_SYK-4PV0

>  <i_i_glide_lignum>  (1) 
29

>  <i_i_glide_rotatable_bonds>  (1) 
5

>  <r_i_docking_score>  (1) 
-7.66479916341695

>  <r_i_glide_ligand_efficiency>  (1) 
-0.255493305447232

>  <r_i_glide_ligand_efficiency_sa>  (1) 
-0.793877102839192

>  <r_i_glide_ligand_efficiency_ln>  (1) 
-1.74152588460422

>  <r_i_glide_gscore>  (1) 
-7.66479916341695

>  <r_i_glide_lipo>  (1) 
-2.71230347845708

>  <r_i_glide_hbond>  (1) 
-0.313040088729576

>  <r_i_glide_metal>  (1) 
-0

>  <r_i_glide_rewards>  (1) 
-2.08501755646684

>  <r_i_glide_evdw>  (1) 
-47.1880531311035

>  <r_i_glide_ecoul>  (1) 
-5.37562084197998

>  <r_i_glide_erotb>  (1) 
0.611307743088721

>  <r_i_glide_esite>  (1) 
0

>  <r_i_glide_emodel>  (1) 
-82.9333312500122

>  <r_i_glide_energy>  (1) 
-52.5636739730835

>  <r_i_glide_einternal>  (1) 
-9.40153540796018e-07

>  <i_i_glide_confnum>  (1) 
1

>  <i_i_glide_posenum>  (1) 
1

>  <r_i_glide_eff_state_penalty>  (1) 
-0

>  <r_i_glide_rmsd>  (1) 
0.0860427517788909

>  <s_glide_core_constrain_type>  (1) 
snapped_core_restrain

$$$$
