lig_CHEMBL3265006
     RDKit          3D

 30 33  0  0  1  0  0  0  0  0999 V2000
    5.6451   -0.4956   16.4705 C   0  0  0  0  0  0  0  0  0  0  0  0
    5.9061    0.4148   15.4884 C   0  0  0  0  0  0  0  0  0  0  0  0
    4.7522    0.5124   14.7407 N   0  0  0  0  0  0  0  0  0  0  0  0
    3.8304   -0.4066   15.2876 C   0  0  0  0  0  0  0  0  0  0  0  0
    4.3754   -1.0439   16.3239 N   0  0  0  0  0  0  0  0  0  0  0  0
    2.5394   -0.4504   14.6864 C   0  0  0  0  0  0  0  0  0  0  0  0
    1.6090   -1.3553   15.2347 N   0  0  0  0  0  0  0  0  0  0  0  0
    0.2342   -1.5709   15.0250 C   0  0  0  0  0  0  0  0  0  0  0  0
   -0.3650   -2.6036   15.7768 C   0  0  0  0  0  0  0  0  0  0  0  0
   -1.7424   -2.8718   15.6638 C   0  0  0  0  0  0  0  0  0  0  0  0
   -2.5443   -2.1098   14.7910 C   0  0  0  0  0  0  0  0  0  0  0  0
   -3.8840   -2.3751   14.7066 O   0  0  0  0  0  0  0  0  0  0  0  0
   -4.2373   -3.1303   13.5575 C   0  0  0  0  0  0  0  0  0  0  0  0
   -1.9718   -1.0615   14.0355 C   0  0  0  0  0  0  0  0  0  0  0  0
   -2.8196   -0.3193   13.2347 O   0  0  0  0  0  0  0  0  0  0  0  0
   -2.2363    0.6645   12.3946 C   0  0  0  0  0  0  0  0  0  0  0  0
   -0.5800   -0.8097   14.1514 C   0  0  0  0  0  0  0  0  0  0  0  0
    2.2221    0.3308   13.6931 N   0  0  0  0  0  0  0  0  0  0  0  0
    3.1485    1.2326   13.2165 C   0  0  0  0  0  0  0  0  0  0  0  0
    2.6863    2.1275   12.1387 C   0  0  0  0  0  0  0  0  0  0  0  0
    3.5886    2.6027   11.1582 C   0  0  0  0  0  0  0  0  0  0  0  0
    3.1498    3.4291   10.1086 C   0  0  0  0  0  0  0  0  0  0  0  0
    1.7935    3.7960   10.0247 C   0  0  0  0  0  0  0  0  0  0  0  0
    0.8787    3.3621   11.0093 C   0  0  0  0  0  0  0  0  0  0  0  0
   -0.5710    3.7260   10.8954 C   0  0  0  0  0  0  0  0  0  0  0  0
   -1.1359    3.7333    9.8011 O   0  0  0  0  0  0  0  0  0  0  0  0
   -1.1756    4.0689   12.0428 N   0  0  0  0  0  0  0  0  0  0  0  0
   -2.5662    4.4981   12.1242 C   0  0  0  0  0  0  0  0  0  0  0  0
    1.3325    2.5301   12.0571 C   0  0  0  0  0  0  0  0  0  0  0  0
    4.4296    1.3179   13.7038 C   0  0  0  0  0  0  0  0  0  0  0  0
  1  5  1  0
  1  2  2  0
  2  3  1  0
  3 30  1  0
  3  4  1  0
  4  5  2  0
  4  6  1  0
  6  7  1  0
  6 18  2  0
  7  8  1  0
  8 17  1  0
  8  9  2  0
  9 10  1  0
 10 11  2  0
 11 12  1  0
 11 14  1  0
 12 13  1  0
 14 15  1  0
 14 17  2  0
 15 16  1  0
 18 19  1  0
 19 20  1  0
 19 30  2  0
 20 29  1  0
 20 21  2  0
 21 22  1  0
 22 23  2  0
 23 24  1  0
 24 25  1  0
 24 29  2  0
 25 26  2  0
 25 27  1  0
 27 28  1  0
M  END
>  <s_m_source_file>  (1) 
ligprep_syk.smi

>  <i_m_source_file_index>  (1) 
14

>  <i_lp_mmshare_version>  (1) 
53161

>  <i_f3d_flags>  (1) 
0

>  <s_epik_input>  (1) 
W0NIM11PYyhbY0hdMSljKE9bQ0gzXSlbY0hdW2NIXWMxW05IXWMoYyhuMjMpbltjSF1bY0hdMiluYyhbY0hdMyktYzRbY0hdW2NIXVtjSF1jKFtjSF00KUMoPU8pW05IXVtDSDNd

>  <s_epik_cmdline>  (1) 
J2VwaWtfcHl0aG9uJywgJy1waHQnLCAnMC4wJywgJy1waCcsICc3LjQnLCAnLXRuJywgJzgnLCAnLW1hJywgJzUwMCcsICctaW1hZScsICc8aW5maWxlLm1hZT4nLCAnLW9tYWUnLCAnPG91dGZpbGUubWFlPic=

>  <r_lp_tautomer_probability>  (1) 
1

>  <r_epik_Ionization_Penalty>  (1) 
  0.0009

>  <r_epik_Ionization_Penalty_Charging>  (1) 
  0.0009

>  <r_epik_Ionization_Penalty_Neutral>  (1) 
  0.0000

>  <r_epik_State_Penalty>  (1) 
 -0.0000

>  <r_epik_Charging_Adjusted_Penalty>  (1) 
0.000851558

>  <i_epik_Tot_Q>  (1) 
0

>  <i_epik_Tot_abs_Q>  (1) 
0

>  <s_lp_Force_Field>  (1) 
S-OPLS

>  <r_lp_Energy>  (1) 
44.6167

>  <b_lp_Chiralities_Consistent>  (1) 
1

>  <s_lp_Variant>  (1) 
lig_CHEMBL3265006-1

>  <s_i_glide_gridfile>  (1) 
glide-grid_SYK-4PV0

>  <i_i_glide_lignum>  (1) 
14

>  <i_i_glide_rotatable_bonds>  (1) 
7

>  <r_i_docking_score>  (1) 
-8.02399584039323

>  <r_i_glide_ligand_efficiency>  (1) 
-0.267466528013108

>  <r_i_glide_ligand_efficiency_sa>  (1) 
-0.831080689154723

>  <r_i_glide_ligand_efficiency_ln>  (1) 
-1.82313928337449

>  <r_i_glide_gscore>  (1) 
-8.02399584039323

>  <r_i_glide_lipo>  (1) 
-2.57706134675401

>  <r_i_glide_hbond>  (1) 
-0.59194625550654

>  <r_i_glide_metal>  (1) 
-0

>  <r_i_glide_rewards>  (1) 
-2.06771095263297

>  <r_i_glide_evdw>  (1) 
-46.6714096069336

>  <r_i_glide_ecoul>  (1) 
-8.3668737411499

>  <r_i_glide_erotb>  (1) 
0.844402276764893

>  <r_i_glide_esite>  (1) 
-0.0430780207454305

>  <r_i_glide_emodel>  (1) 
-89.9891445183064

>  <r_i_glide_energy>  (1) 
-55.0382833480835

>  <r_i_glide_einternal>  (1) 
2.27257572760209e-08

>  <i_i_glide_confnum>  (1) 
1

>  <i_i_glide_posenum>  (1) 
1

>  <r_i_glide_eff_state_penalty>  (1) 
-0

>  <r_i_glide_rmsd>  (1) 
0.0507905761212228

>  <s_glide_core_constrain_type>  (1) 
snapped_core_restrain

$$$$
