lig_CHEMBL3265003
     RDKit          3D

 40 45  0  0  1  0  0  0  0  0999 V2000
   -8.6893    6.5012   12.5434 C   0  0  0  0  0  0  0  0  0  0  0  0
   -8.3163    6.7700   13.7859 N   0  0  0  0  0  0  0  0  0  0  0  0
   -7.0243    6.3976   13.8106 N   0  0  0  0  0  0  0  0  0  0  0  0
   -6.5724    5.9208   12.6021 C   0  0  0  0  0  0  0  0  0  0  0  0
   -5.2019    5.4538   12.4270 C   0  0  0  0  0  0  0  0  0  0  0  0
   -4.1720    5.8739   13.2969 C   0  0  0  0  0  0  0  0  0  0  0  0
   -2.8550    5.4062   13.1311 C   0  0  0  0  0  0  0  0  0  0  0  0
   -2.5388    4.5100   12.0934 C   0  0  0  0  0  0  0  0  0  0  0  0
   -1.1877    4.0886   11.9665 N   0  0  0  0  0  0  0  0  0  0  0  0
   -0.5606    3.7008   10.8424 C   0  0  0  0  0  0  0  0  0  0  0  0
   -1.0823    3.6526    9.7287 O   0  0  0  0  0  0  0  0  0  0  0  0
    0.8909    3.3662   11.0001 C   0  0  0  0  0  0  0  0  0  0  0  0
    1.8134    3.8055   10.0287 C   0  0  0  0  0  0  0  0  0  0  0  0
    3.1648    3.4325   10.1144 C   0  0  0  0  0  0  0  0  0  0  0  0
    3.5956    2.5972   11.1603 C   0  0  0  0  0  0  0  0  0  0  0  0
    2.6868    2.1312   12.1404 C   0  0  0  0  0  0  0  0  0  0  0  0
    3.1466    1.2392   13.2201 C   0  0  0  0  0  0  0  0  0  0  0  0
    4.4283    1.3253   13.7031 C   0  0  0  0  0  0  0  0  0  0  0  0
    4.7594    0.5162   14.7315 N   0  0  0  0  0  0  0  0  0  0  0  0
    3.8378   -0.4041   15.2867 C   0  0  0  0  0  0  0  0  0  0  0  0
    4.3963   -1.0450   16.3108 N   0  0  0  0  0  0  0  0  0  0  0  0
    5.6684   -0.5000   16.4493 C   0  0  0  0  0  0  0  0  0  0  0  0
    5.9202    0.4153   15.4696 C   0  0  0  0  0  0  0  0  0  0  0  0
    2.5394   -0.4405   14.6963 C   0  0  0  0  0  0  0  0  0  0  0  0
    1.6043   -1.3344   15.2472 N   0  0  0  0  0  0  0  0  0  0  0  0
    0.2276   -1.5482   15.0311 C   0  0  0  0  0  0  0  0  0  0  0  0
   -0.3727   -2.5783   15.7837 C   0  0  0  0  0  0  0  0  0  0  0  0
   -1.7471   -2.8546   15.6637 C   0  0  0  0  0  0  0  0  0  0  0  0
   -2.5510   -2.1029   14.7868 C   0  0  0  0  0  0  0  0  0  0  0  0
   -3.8906   -2.3802   14.6973 O   0  0  0  0  0  0  0  0  0  0  0  0
   -4.2312   -3.1332   13.5442 C   0  0  0  0  0  0  0  0  0  0  0  0
   -1.9820   -1.0531   14.0330 C   0  0  0  0  0  0  0  0  0  0  0  0
   -2.8325   -0.3217   13.2281 O   0  0  0  0  0  0  0  0  0  0  0  0
   -2.2597    0.6614   12.3796 C   0  0  0  0  0  0  0  0  0  0  0  0
   -0.5917   -0.7921   14.1559 C   0  0  0  0  0  0  0  0  0  0  0  0
    2.2194    0.3409   13.7045 N   0  0  0  0  0  0  0  0  0  0  0  0
    1.3358    2.5412   12.0565 C   0  0  0  0  0  0  0  0  0  0  0  0
   -3.5768    4.0578   11.2446 C   0  0  0  0  0  0  0  0  0  0  0  0
   -4.8887    4.5403   11.4007 C   0  0  0  0  0  0  0  0  0  0  0  0
   -7.6392    5.9572   11.7488 C   0  0  0  0  0  0  0  0  0  0  0  0
  1 40  1  0
  1  2  2  0
  2  3  1  0
  3  4  1  0
  4  5  1  0
  4 40  2  0
  5 39  1  0
  5  6  2  0
  6  7  1  0
  7  8  2  0
  8  9  1  0
  8 38  1  0
  9 10  1  0
 10 11  2  0
 10 12  1  0
 12 37  1  0
 12 13  2  0
 13 14  1  0
 14 15  2  0
 15 16  1  0
 16 17  1  0
 16 37  2  0
 17 36  1  0
 17 18  2  0
 18 19  1  0
 19 23  1  0
 19 20  1  0
 20 21  2  0
 20 24  1  0
 21 22  1  0
 22 23  2  0
 24 25  1  0
 24 36  2  0
 25 26  1  0
 26 35  1  0
 26 27  2  0
 27 28  1  0
 28 29  2  0
 29 30  1  0
 29 32  1  0
 30 31  1  0
 32 33  1  0
 32 35  2  0
 33 34  1  0
 38 39  2  0
M  END
>  <s_m_source_file>  (1) 
ligprep_syk.smi

>  <i_m_source_file_index>  (1) 
11

>  <i_lp_mmshare_version>  (1) 
53161

>  <i_f3d_flags>  (1) 
0

>  <s_epik_input>  (1) 
W2NIXTFbY0hdbltuSF1jMS1jMltjSF1bY0hdYyhbY0hdW2NIXTIpW05IXUMoPU8pYzNbY0hdW2NIXVtjSF1jKFtjSF0zKS1jKFtjSF00KW5jKGMobjQ1KW5bY0hdW2NIXTUpW05IXWM2W2NIXVtjSF1jKE9bQ0gzXSljKFtjSF02KU9bQ0gzXQ==

>  <s_epik_cmdline>  (1) 
J2VwaWtfcHl0aG9uJywgJy1waHQnLCAnMC4wJywgJy1waCcsICc3LjQnLCAnLXRuJywgJzgnLCAnLW1hJywgJzUwMCcsICctaW1hZScsICc8aW5maWxlLm1hZT4nLCAnLW9tYWUnLCAnPG91dGZpbGUubWFlPic=

>  <r_lp_tautomer_probability>  (1) 
1

>  <r_epik_Ionization_Penalty>  (1) 
  0.0009

>  <r_epik_Ionization_Penalty_Charging>  (1) 
  0.0009

>  <r_epik_Ionization_Penalty_Neutral>  (1) 
  0.0000

>  <r_epik_State_Penalty>  (1) 
 -0.0000

>  <r_epik_Charging_Adjusted_Penalty>  (1) 
0.000851558

>  <i_epik_Tot_Q>  (1) 
0

>  <i_epik_Tot_abs_Q>  (1) 
0

>  <s_lp_Force_Field>  (1) 
S-OPLS

>  <r_lp_Energy>  (1) 
57.9043

>  <b_lp_Chiralities_Consistent>  (1) 
1

>  <s_lp_Variant>  (1) 
lig_CHEMBL3265003-1

>  <s_i_glide_gridfile>  (1) 
glide-grid_SYK-4PV0

>  <i_i_glide_lignum>  (1) 
11

>  <i_i_glide_rotatable_bonds>  (1) 
9

>  <r_i_docking_score>  (1) 
-8.52569736793986

>  <r_i_glide_ligand_efficiency>  (1) 
-0.213142434198497

>  <r_i_glide_ligand_efficiency_sa>  (1) 
-0.72893687049478

>  <r_i_glide_ligand_efficiency_ln>  (1) 
-1.81828034850834

>  <r_i_glide_gscore>  (1) 
-8.52569736793986

>  <r_i_glide_lipo>  (1) 
-2.96887652036318

>  <r_i_glide_hbond>  (1) 
-0.580547171546666

>  <r_i_glide_metal>  (1) 
-0

>  <r_i_glide_rewards>  (1) 
-1.38813066652707

>  <r_i_glide_evdw>  (1) 
-56.5455551147461

>  <r_i_glide_ecoul>  (1) 
-9.09055328369141

>  <r_i_glide_erotb>  (1) 
0.65680244910293

>  <r_i_glide_esite>  (1) 
-0.0540847103148598

>  <r_i_glide_emodel>  (1) 
-97.334914656898

>  <r_i_glide_energy>  (1) 
-65.6361083984375

>  <r_i_glide_einternal>  (1) 
0.465983927249908

>  <i_i_glide_confnum>  (1) 
3

>  <i_i_glide_posenum>  (1) 
4

>  <r_i_glide_eff_state_penalty>  (1) 
-0

>  <r_i_glide_rmsd>  (1) 
0.0616560487247271

>  <s_glide_core_constrain_type>  (1) 
snapped_core_restrain

$$$$
