lig_CHEMBL3265036
     RDKit          3D

 32 37  0  0  1  0  0  0  0  0999 V2000
    0.9831    4.6851    9.1422 C   0  0  0  0  0  0  0  0  0  0  0  0
   -0.2386    4.8054    9.6031 N   0  0  0  0  0  0  0  0  0  0  0  0
   -0.2630    4.0755   10.7471 N   0  0  0  0  0  0  0  0  0  0  0  0
    0.9388    3.4627   11.0466 C   0  0  0  0  0  0  0  0  0  0  0  0
    1.3734    2.6279   12.0892 C   0  0  0  0  0  0  0  0  0  0  0  0
    2.7012    2.1456   12.0957 C   0  0  0  0  0  0  0  0  0  0  0  0
    3.1727    1.2453   13.1653 C   0  0  0  0  0  0  0  0  0  0  0  0
    4.4563    1.3198   13.6449 C   0  0  0  0  0  0  0  0  0  0  0  0
    4.7767    0.5119   14.6841 N   0  0  0  0  0  0  0  0  0  0  0  0
    3.8533   -0.4032   15.2337 C   0  0  0  0  0  0  0  0  0  0  0  0
    4.3947   -1.0431   16.2699 N   0  0  0  0  0  0  0  0  0  0  0  0
    5.6608   -0.4924   16.4275 C   0  0  0  0  0  0  0  0  0  0  0  0
    5.9301    0.4052   15.4329 C   0  0  0  0  0  0  0  0  0  0  0  0
    2.5645   -0.4441   14.6349 C   0  0  0  0  0  0  0  0  0  0  0  0
    1.6368   -1.3404   15.1932 N   0  0  0  0  0  0  0  0  0  0  0  0
    0.2606   -1.5349   14.9998 C   0  0  0  0  0  0  0  0  0  0  0  0
   -0.3613   -2.5324   15.7808 C   0  0  0  0  0  0  0  0  0  0  0  0
   -1.7378   -2.8026   15.6472 C   0  0  0  0  0  0  0  0  0  0  0  0
   -2.5269   -2.0819   14.7182 C   0  0  0  0  0  0  0  0  0  0  0  0
   -3.8972   -2.3508   14.5119 N   0  0  0  0  0  0  0  0  0  0  0  0
   -4.1517   -2.8529   13.1596 C   0  0  0  0  0  0  0  0  0  0  0  0
   -5.5527   -3.4401   12.9224 C   0  0  0  0  0  0  0  0  0  0  0  0
   -5.6167   -4.7806   13.3921 O   0  0  0  0  0  0  0  0  0  0  0  0
   -5.9250   -4.9054   14.7761 C   0  0  0  0  0  0  0  0  0  0  0  0
   -4.8085   -4.3777   15.6953 C   0  0  0  0  0  0  0  0  0  0  0  0
   -4.6643   -2.8446   15.6574 C   0  0  0  0  0  0  0  0  0  0  0  0
   -1.9054   -1.0791   13.9467 C   0  0  0  0  0  0  0  0  0  0  0  0
   -0.5342   -0.8037   14.0899 C   0  0  0  0  0  0  0  0  0  0  0  0
    2.2460    0.3437   13.6480 N   0  0  0  0  0  0  0  0  0  0  0  0
    3.5704    2.5577   11.0553 C   0  0  0  0  0  0  0  0  0  0  0  0
    3.1271    3.3984   10.0136 C   0  0  0  0  0  0  0  0  0  0  0  0
    1.7950    3.8652    9.9872 C   0  0  0  0  0  0  0  0  0  0  0  0
  1 32  1  0
  1  2  2  0
  2  3  1  0
  3  4  1  0
  4 32  2  0
  4  5  1  0
  5  6  2  0
  6  7  1  0
  6 30  1  0
  7 29  1  0
  7  8  2  0
  8  9  1  0
  9 13  1  0
  9 10  1  0
 10 11  2  0
 10 14  1  0
 11 12  1  0
 12 13  2  0
 14 15  1  0
 14 29  2  0
 15 16  1  0
 16 28  1  0
 16 17  2  0
 17 18  1  0
 18 19  2  0
 19 20  1  0
 19 27  1  0
 20 26  1  0
 20 21  1  0
 21 22  1  0
 22 23  1  0
 23 24  1  0
 24 25  1  0
 25 26  1  0
 27 28  2  0
 30 31  2  0
 31 32  1  0
M  END
>  <s_m_source_file>  (1) 
ligprep_syk.smi

>  <i_m_source_file_index>  (1) 
43

>  <i_lp_mmshare_version>  (1) 
53161

>  <i_f3d_flags>  (1) 
0

>  <s_epik_input>  (1) 
W25IXTFuW2NIXWMoYzEyKVtjSF1bY0hdYyhbY0hdMiktYyhbY0hdMyluYyhjKG4zNCluW2NIXVtjSF00KVtOSF1jNVtjSF1bY0hdYyhbY0hdW2NIXTUpTjZbQ0gyXVtDSDJdT1tDSDJdW0NIMl1bQ0gyXTY=

>  <s_epik_cmdline>  (1) 
J2VwaWtfcHl0aG9uJywgJy1waHQnLCAnMC4wJywgJy1waCcsICc3LjQnLCAnLXRuJywgJzgnLCAnLW1hJywgJzUwMCcsICctaW1hZScsICc8aW5maWxlLm1hZT4nLCAnLW9tYWUnLCAnPG91dGZpbGUubWFlPic=

>  <r_lp_tautomer_probability>  (1) 
1

>  <r_epik_Ionization_Penalty>  (1) 
  0.0143

>  <r_epik_Ionization_Penalty_Charging>  (1) 
  0.0009

>  <r_epik_Ionization_Penalty_Neutral>  (1) 
  0.0134

>  <r_epik_State_Penalty>  (1) 
 -0.0000

>  <r_epik_Charging_Adjusted_Penalty>  (1) 
0.000851558

>  <i_epik_Tot_Q>  (1) 
0

>  <i_epik_Tot_abs_Q>  (1) 
0

>  <s_lp_Force_Field>  (1) 
S-OPLS

>  <r_lp_Energy>  (1) 
48.0466

>  <b_lp_Chiralities_Consistent>  (1) 
1

>  <s_lp_Variant>  (1) 
lig_CHEMBL3265036-1

>  <s_i_glide_gridfile>  (1) 
glide-grid_SYK-4PV0

>  <i_i_glide_lignum>  (1) 
45

>  <i_i_glide_rotatable_bonds>  (1) 
4

>  <r_i_docking_score>  (1) 
-7.89789485971042

>  <r_i_glide_ligand_efficiency>  (1) 
-0.24680921436595

>  <r_i_glide_ligand_efficiency_sa>  (1) 
-0.783570412134693

>  <r_i_glide_ligand_efficiency_ln>  (1) 
-1.76855394757199

>  <r_i_glide_gscore>  (1) 
-7.89789485971042

>  <r_i_glide_lipo>  (1) 
-2.7460987481011

>  <r_i_glide_hbond>  (1) 
-0.267328219412752

>  <r_i_glide_metal>  (1) 
-0

>  <r_i_glide_rewards>  (1) 
-1.92588762577325

>  <r_i_glide_evdw>  (1) 
-48.1396102905273

>  <r_i_glide_ecoul>  (1) 
-6.31317377090454

>  <r_i_glide_erotb>  (1) 
0.438308777680473

>  <r_i_glide_esite>  (1) 
-0.0429324639417339

>  <r_i_glide_emodel>  (1) 
-78.4143545551985

>  <r_i_glide_energy>  (1) 
-54.4527840614319

>  <r_i_glide_einternal>  (1) 
2.96596646308899

>  <i_i_glide_confnum>  (1) 
1

>  <i_i_glide_posenum>  (1) 
76

>  <r_i_glide_eff_state_penalty>  (1) 
-0

>  <r_i_glide_rmsd>  (1) 
0.101153988620592

>  <s_glide_core_constrain_type>  (1) 
snapped_core_restrain

$$$$
