lig_CHEMBL3265030_n
     RDKit          3D

 31 36  0  0  1  0  0  0  0  0999 V2000
   -6.6998   -2.4710   14.6733 O   0  0  0  0  0  0  0  0  0  0  0  0
   -5.7424   -2.8893   15.6294 C   0  0  0  0  0  0  0  0  0  0  0  0
   -6.5358   -3.4937   16.7838 C   0  0  0  0  0  0  0  0  0  0  0  0
   -4.5521   -3.6669   15.0516 C   0  0  0  0  0  0  0  0  0  0  0  0
   -3.9358   -2.3608   14.8208 N   0  0  0  0  0  0  0  0  0  0  0  0
   -2.4445   -2.1664   14.8560 C   0  0  0  0  0  0  0  0  0  0  0  0
   -1.6326   -2.9024   15.7349 C   0  0  0  0  0  0  0  0  0  0  0  0
   -0.2548   -2.6120   15.8010 C   0  0  0  0  0  0  0  0  0  0  0  0
    0.3103   -1.5909   15.0110 C   0  0  0  0  0  0  0  0  0  0  0  0
    1.6743   -1.3503   15.2133 N   0  0  0  0  0  0  0  0  0  0  0  0
    2.5854   -0.4484   14.6445 C   0  0  0  0  0  0  0  0  0  0  0  0
    2.2573    0.3288   13.6527 N   0  0  0  0  0  0  0  0  0  0  0  0
    3.1805    1.2323   13.1678 C   0  0  0  0  0  0  0  0  0  0  0  0
    2.7060    2.1245   12.0914 C   0  0  0  0  0  0  0  0  0  0  0  0
    3.5770    2.5567   11.0605 C   0  0  0  0  0  0  0  0  0  0  0  0
    3.1263    3.3959   10.0203 C   0  0  0  0  0  0  0  0  0  0  0  0
    1.7836    3.8306    9.9785 C   0  0  0  0  0  0  0  0  0  0  0  0
    0.9251    3.4017   11.0244 C   0  0  0  0  0  0  0  0  0  0  0  0
    1.3674    2.5742   12.0679 C   0  0  0  0  0  0  0  0  0  0  0  0
   -0.2923    3.9737   10.7084 N   0  0  0  0  0  0  0  0  0  0  0  0
   -0.2719    4.7118    9.5704 N   0  0  0  0  0  0  0  0  0  0  0  0
    0.9622    4.6413    9.1298 C   0  0  0  0  0  0  0  0  0  0  0  0
    4.4617    1.3238   13.6558 C   0  0  0  0  0  0  0  0  0  0  0  0
    4.7902    0.5217   14.6972 N   0  0  0  0  0  0  0  0  0  0  0  0
    3.8720   -0.4020   15.2439 C   0  0  0  0  0  0  0  0  0  0  0  0
    4.4125   -1.0410   16.2788 N   0  0  0  0  0  0  0  0  0  0  0  0
    5.6725   -0.4849   16.4414 C   0  0  0  0  0  0  0  0  0  0  0  0
    5.9398    0.4226   15.4541 C   0  0  0  0  0  0  0  0  0  0  0  0
   -0.5184   -0.8756   14.1129 C   0  0  0  0  0  0  0  0  0  0  0  0
   -1.8939   -1.1653   14.0344 C   0  0  0  0  0  0  0  0  0  0  0  0
   -4.6901   -1.8316   15.9523 C   0  0  0  0  0  0  0  0  0  0  0  0
  1  2  1  0
  2 31  1  0
  2  3  1  0
  2  4  1  0
  4  5  1  0
  5  6  1  0
  5 31  1  0
  6 30  1  0
  6  7  2  0
  7  8  1  0
  8  9  2  0
  9 10  1  0
  9 29  1  0
 10 11  1  0
 11 25  1  0
 11 12  2  0
 12 13  1  0
 13 14  1  0
 13 23  2  0
 14 19  1  0
 14 15  2  0
 15 16  1  0
 16 17  2  0
 17 22  1  0
 17 18  1  0
 18 19  2  0
 18 20  1  0
 20 21  1  0
 21 22  2  0
 23 24  1  0
 24 28  1  0
 24 25  1  0
 25 26  2  0
 26 27  1  0
 27 28  2  0
 29 30  2  0
M  END
>  <s_m_source_file>  (1) 
ligprep_syk.smi

>  <i_m_source_file_index>  (1) 
37

>  <i_lp_mmshare_version>  (1) 
53161

>  <i_f3d_flags>  (1) 
0

>  <s_epik_input>  (1) 
W09IXUMxKFtDSDNdKVtDSDJdTihbQ0gyXTEpYzJbY0hdW2NIXWMoW2NIXVtjSF0yKVtOSF1jKGMobjM0KW5bY0hdW2NIXTQpbmMoW2NIXTMpLWMoW2NIXVtjSF01KVtjSF1jKGM1NilbbkhdbltjSF02

>  <s_epik_cmdline>  (1) 
J2VwaWtfcHl0aG9uJywgJy1waHQnLCAnMC4wJywgJy1waCcsICc3LjQnLCAnLXRuJywgJzgnLCAnLW1hJywgJzUwMCcsICctaW1hZScsICc8aW5maWxlLm1hZT4nLCAnLW9tYWUnLCAnPG91dGZpbGUubWFlPic=

>  <r_lp_tautomer_probability>  (1) 
1

>  <r_epik_Ionization_Penalty>  (1) 
  0.0068

>  <r_epik_Ionization_Penalty_Charging>  (1) 
  0.0068

>  <r_epik_Ionization_Penalty_Neutral>  (1) 
  0.0000

>  <r_epik_State_Penalty>  (1) 
 -0.0000

>  <r_epik_Charging_Adjusted_Penalty>  (1) 
0.00681491

>  <i_epik_Tot_Q>  (1) 
1

>  <i_epik_Tot_abs_Q>  (1) 
1

>  <s_lp_Force_Field>  (1) 
S-OPLS

>  <r_lp_Energy>  (1) 
50.3874

>  <b_lp_Chiralities_Consistent>  (1) 
1

>  <s_lp_Variant>  (1) 
lig_CHEMBL3265030_n-2

>  <s_i_glide_gridfile>  (1) 
glide-grid_SYK-4PV0

>  <i_i_glide_lignum>  (1) 
38

>  <i_i_glide_rotatable_bonds>  (1) 
5

>  <r_i_docking_score>  (1) 
-7.25123424899545

>  <r_i_glide_ligand_efficiency>  (1) 
-0.23391078222566

>  <r_i_glide_ligand_efficiency_sa>  (1) 
-0.734802804828323

>  <r_i_glide_ligand_efficiency_ln>  (1) 
-1.63537554679016

>  <r_i_glide_gscore>  (1) 
-7.25123424899545

>  <r_i_glide_lipo>  (1) 
-2.72478998438119

>  <r_i_glide_hbond>  (1) 
-0.293586256994992

>  <r_i_glide_metal>  (1) 
-0

>  <r_i_glide_rewards>  (1) 
-1.7195900890754

>  <r_i_glide_evdw>  (1) 
-45.6600799560547

>  <r_i_glide_ecoul>  (1) 
-4.34018898010254

>  <r_i_glide_erotb>  (1) 
0.463629232680288

>  <r_i_glide_esite>  (1) 
-0.0428648064060356

>  <r_i_glide_emodel>  (1) 
-65.7727075702995

>  <r_i_glide_energy>  (1) 
-50.0002689361572

>  <r_i_glide_einternal>  (1) 
1.00224494934082

>  <i_i_glide_confnum>  (1) 
13

>  <i_i_glide_posenum>  (1) 
2

>  <r_i_glide_eff_state_penalty>  (1) 
-0

>  <r_i_glide_rmsd>  (1) 
0.0993325982794016

>  <s_glide_core_constrain_type>  (1) 
snapped_core_restrain

$$$$
