lig_CHEMBL3265017
     RDKit          3D

 29 33  0  0  1  0  0  0  0  0999 V2000
    0.9874    4.6391    9.1186 C   0  0  0  0  0  0  0  0  0  0  0  0
   -0.2596    4.6805    9.5242 N   0  0  0  0  0  0  0  0  0  0  0  0
   -0.2979    3.9375   10.6590 N   0  0  0  0  0  0  0  0  0  0  0  0
    0.9195    3.3819   11.0024 C   0  0  0  0  0  0  0  0  0  0  0  0
    1.3483    2.5502   12.0482 C   0  0  0  0  0  0  0  0  0  0  0  0
    2.6949    2.1305   12.1037 C   0  0  0  0  0  0  0  0  0  0  0  0
    3.1568    1.2366   13.1824 C   0  0  0  0  0  0  0  0  0  0  0  0
    4.4285    1.3393   13.6865 C   0  0  0  0  0  0  0  0  0  0  0  0
    4.7567    0.5280   14.7183 N   0  0  0  0  0  0  0  0  0  0  0  0
    3.8389   -0.4030   15.2572 C   0  0  0  0  0  0  0  0  0  0  0  0
    4.3888   -1.0455   16.2873 N   0  0  0  0  0  0  0  0  0  0  0  0
    5.6548   -0.4910   16.4404 C   0  0  0  0  0  0  0  0  0  0  0  0
    5.9101    0.4320   15.4681 C   0  0  0  0  0  0  0  0  0  0  0  0
    2.5490   -0.4493   14.6525 C   0  0  0  0  0  0  0  0  0  0  0  0
    1.6186   -1.3508   15.2026 N   0  0  0  0  0  0  0  0  0  0  0  0
    0.2374   -1.5500   15.0086 C   0  0  0  0  0  0  0  0  0  0  0  0
   -0.3642   -2.5883   15.7516 C   0  0  0  0  0  0  0  0  0  0  0  0
   -1.7407   -2.8544   15.6340 C   0  0  0  0  0  0  0  0  0  0  0  0
   -2.5395   -2.0806   14.7721 C   0  0  0  0  0  0  0  0  0  0  0  0
   -3.8808   -2.3432   14.6809 O   0  0  0  0  0  0  0  0  0  0  0  0
   -4.2200   -3.1192   13.5435 C   0  0  0  0  0  0  0  0  0  0  0  0
   -1.9687   -1.0261   14.0272 C   0  0  0  0  0  0  0  0  0  0  0  0
   -2.8190   -0.2884   13.2263 O   0  0  0  0  0  0  0  0  0  0  0  0
   -2.2568    0.6761   12.3480 C   0  0  0  0  0  0  0  0  0  0  0  0
   -0.5781   -0.7754   14.1481 C   0  0  0  0  0  0  0  0  0  0  0  0
    2.2344    0.3258   13.6542 N   0  0  0  0  0  0  0  0  0  0  0  0
    3.5878    2.5963   11.1061 C   0  0  0  0  0  0  0  0  0  0  0  0
    3.1519    3.4391   10.0626 C   0  0  0  0  0  0  0  0  0  0  0  0
    1.8000    3.8405    9.9865 C   0  0  0  0  0  0  0  0  0  0  0  0
  1 29  1  0
  1  2  2  0
  2  3  1  0
  3  4  1  0
  4 29  2  0
  4  5  1  0
  5  6  2  0
  6  7  1  0
  6 27  1  0
  7 26  1  0
  7  8  2  0
  8  9  1  0
  9 13  1  0
  9 10  1  0
 10 11  2  0
 10 14  1  0
 11 12  1  0
 12 13  2  0
 14 15  1  0
 14 26  2  0
 15 16  1  0
 16 25  1  0
 16 17  2  0
 17 18  1  0
 18 19  2  0
 19 20  1  0
 19 22  1  0
 20 21  1  0
 22 23  1  0
 22 25  2  0
 23 24  1  0
 27 28  2  0
 28 29  1  0
M  END
>  <s_m_source_file>  (1) 
ligprep_syk.smi

>  <i_m_source_file_index>  (1) 
24

>  <i_lp_mmshare_version>  (1) 
53161

>  <i_f3d_flags>  (1) 
0

>  <s_epik_input>  (1) 
W25IXTFuW2NIXWMoYzEyKVtjSF1bY0hdYyhbY0hdMiktYyhbY0hdMyluYyhjKG4zNCluW2NIXVtjSF00KVtOSF1jNVtjSF1bY0hdYyhPW0NIM10pYyhbY0hdNSlPW0NIM10=

>  <s_epik_cmdline>  (1) 
J2VwaWtfcHl0aG9uJywgJy1waHQnLCAnMC4wJywgJy1waCcsICc3LjQnLCAnLXRuJywgJzgnLCAnLW1hJywgJzUwMCcsICctaW1hZScsICc8aW5maWxlLm1hZT4nLCAnLW9tYWUnLCAnPG91dGZpbGUubWFlPic=

>  <r_lp_tautomer_probability>  (1) 
1

>  <r_epik_Ionization_Penalty>  (1) 
  0.0009

>  <r_epik_Ionization_Penalty_Charging>  (1) 
  0.0009

>  <r_epik_Ionization_Penalty_Neutral>  (1) 
  0.0000

>  <r_epik_State_Penalty>  (1) 
 -0.0000

>  <r_epik_Charging_Adjusted_Penalty>  (1) 
0.000851558

>  <i_epik_Tot_Q>  (1) 
0

>  <i_epik_Tot_abs_Q>  (1) 
0

>  <s_lp_Force_Field>  (1) 
S-OPLS

>  <r_lp_Energy>  (1) 
42.9525

>  <b_lp_Chiralities_Consistent>  (1) 
1

>  <s_lp_Variant>  (1) 
lig_CHEMBL3265017-1

>  <s_i_glide_gridfile>  (1) 
glide-grid_SYK-4PV0

>  <i_i_glide_lignum>  (1) 
24

>  <i_i_glide_rotatable_bonds>  (1) 
5

>  <r_i_docking_score>  (1) 
-7.7612947248998

>  <r_i_glide_ligand_efficiency>  (1) 
-0.267630852582752

>  <r_i_glide_ligand_efficiency_sa>  (1) 
-0.822246770539721

>  <r_i_glide_ligand_efficiency_ln>  (1) 
-1.77713968254902

>  <r_i_glide_gscore>  (1) 
-7.7612947248998

>  <r_i_glide_lipo>  (1) 
-2.74321992564596

>  <r_i_glide_hbond>  (1) 
-0.332496909655839

>  <r_i_glide_metal>  (1) 
-0

>  <r_i_glide_rewards>  (1) 
-2.18805540211637

>  <r_i_glide_evdw>  (1) 
-46.103271484375

>  <r_i_glide_ecoul>  (1) 
-5.61414909362793

>  <r_i_glide_erotb>  (1) 
0.651766528382292

>  <r_i_glide_esite>  (1) 
-0.00200307760098653

>  <r_i_glide_emodel>  (1) 
-82.0143776192551

>  <r_i_glide_energy>  (1) 
-51.7174205780029

>  <r_i_glide_einternal>  (1) 
-1.3118139463586e-07

>  <i_i_glide_confnum>  (1) 
1

>  <i_i_glide_posenum>  (1) 
1

>  <r_i_glide_eff_state_penalty>  (1) 
-0

>  <r_i_glide_rmsd>  (1) 
0.072650565985837

>  <s_glide_core_constrain_type>  (1) 
snapped_core_restrain

$$$$
