lig_CHEMBL3265009
     RDKit          3D

 30 33  0  0  1  0  0  0  0  0999 V2000
    5.6508   -0.4922   16.4222 C   0  0  0  0  0  0  0  0  0  0  0  0
    5.9123    0.4158   15.4349 C   0  0  0  0  0  0  0  0  0  0  0  0
    4.7532    0.5229   14.6947 N   0  0  0  0  0  0  0  0  0  0  0  0
    3.8356   -0.4024   15.2413 C   0  0  0  0  0  0  0  0  0  0  0  0
    4.3877   -1.0474   16.2689 N   0  0  0  0  0  0  0  0  0  0  0  0
    2.5423   -0.4408   14.6503 C   0  0  0  0  0  0  0  0  0  0  0  0
    1.6252   -1.3611   15.1910 N   0  0  0  0  0  0  0  0  0  0  0  0
    0.2453   -1.5576   15.0072 C   0  0  0  0  0  0  0  0  0  0  0  0
   -0.3577   -2.5925   15.7524 C   0  0  0  0  0  0  0  0  0  0  0  0
   -1.7363   -2.8479   15.6385 C   0  0  0  0  0  0  0  0  0  0  0  0
   -2.5315   -2.0785   14.7679 C   0  0  0  0  0  0  0  0  0  0  0  0
   -3.8751   -2.3339   14.6804 O   0  0  0  0  0  0  0  0  0  0  0  0
   -4.2267   -3.1135   13.5486 C   0  0  0  0  0  0  0  0  0  0  0  0
   -1.9539   -1.0351   14.0131 C   0  0  0  0  0  0  0  0  0  0  0  0
   -2.7905   -0.3074   13.1918 O   0  0  0  0  0  0  0  0  0  0  0  0
   -2.2104    0.6821   12.3528 C   0  0  0  0  0  0  0  0  0  0  0  0
   -0.5655   -0.7843   14.1432 C   0  0  0  0  0  0  0  0  0  0  0  0
    2.2157    0.3579   13.6703 N   0  0  0  0  0  0  0  0  0  0  0  0
    3.1374    1.2623   13.1838 C   0  0  0  0  0  0  0  0  0  0  0  0
    2.6765    2.1660   12.1055 C   0  0  0  0  0  0  0  0  0  0  0  0
    3.5782    2.6313   11.1202 C   0  0  0  0  0  0  0  0  0  0  0  0
    3.1474    3.4664   10.0761 C   0  0  0  0  0  0  0  0  0  0  0  0
    1.8002    3.8595    9.9861 C   0  0  0  0  0  0  0  0  0  0  0  0
    1.3819    4.7450    8.8239 C   0  0  0  0  0  0  0  0  0  0  0  0
    0.8768    3.4193   10.9697 C   0  0  0  0  0  0  0  0  0  0  0  0
   -0.5808    3.7609   10.8675 C   0  0  0  0  0  0  0  0  0  0  0  0
   -1.1660    3.7248    9.7865 O   0  0  0  0  0  0  0  0  0  0  0  0
   -1.1701    4.1431   12.0032 N   0  0  0  0  0  0  0  0  0  0  0  0
    1.3290    2.5896   12.0238 C   0  0  0  0  0  0  0  0  0  0  0  0
    4.4217    1.3372   13.6640 C   0  0  0  0  0  0  0  0  0  0  0  0
  1  5  1  0
  1  2  2  0
  2  3  1  0
  3 30  1  0
  3  4  1  0
  4  5  2  0
  4  6  1  0
  6  7  1  0
  6 18  2  0
  7  8  1  0
  8 17  1  0
  8  9  2  0
  9 10  1  0
 10 11  2  0
 11 12  1  0
 11 14  1  0
 12 13  1  0
 14 15  1  0
 14 17  2  0
 15 16  1  0
 18 19  1  0
 19 20  1  0
 19 30  2  0
 20 29  1  0
 20 21  2  0
 21 22  1  0
 22 23  2  0
 23 24  1  0
 23 25  1  0
 25 26  1  0
 25 29  2  0
 26 27  2  0
 26 28  1  0
M  END
>  <s_m_source_file>  (1) 
ligprep_syk.smi

>  <i_m_source_file_index>  (1) 
16

>  <i_lp_mmshare_version>  (1) 
53161

>  <i_f3d_flags>  (1) 
0

>  <s_epik_input>  (1) 
W0NIM11PYyhbY0hdMSljKE9bQ0gzXSlbY0hdW2NIXWMxW05IXWMoYyhuMjMpbltjSF1bY0hdMiluYyhbY0hdMyktYzRbY0hdW2NIXWMoW0NIM10pYyhbY0hdNClDKD1PKVtOSDJd

>  <s_epik_cmdline>  (1) 
J2VwaWtfcHl0aG9uJywgJy1waHQnLCAnMC4wJywgJy1waCcsICc3LjQnLCAnLXRuJywgJzgnLCAnLW1hJywgJzUwMCcsICctaW1hZScsICc8aW5maWxlLm1hZT4nLCAnLW9tYWUnLCAnPG91dGZpbGUubWFlPic=

>  <r_lp_tautomer_probability>  (1) 
1

>  <r_epik_Ionization_Penalty>  (1) 
  0.0014

>  <r_epik_Ionization_Penalty_Charging>  (1) 
  0.0014

>  <r_epik_Ionization_Penalty_Neutral>  (1) 
  0.0000

>  <r_epik_State_Penalty>  (1) 
 -0.0000

>  <r_epik_Charging_Adjusted_Penalty>  (1) 
0.00138546

>  <i_epik_Tot_Q>  (1) 
0

>  <i_epik_Tot_abs_Q>  (1) 
0

>  <s_lp_Force_Field>  (1) 
S-OPLS

>  <r_lp_Energy>  (1) 
44.1465

>  <b_lp_Chiralities_Consistent>  (1) 
1

>  <s_lp_Variant>  (1) 
lig_CHEMBL3265009-1

>  <s_i_glide_gridfile>  (1) 
glide-grid_SYK-4PV0

>  <i_i_glide_lignum>  (1) 
16

>  <i_i_glide_rotatable_bonds>  (1) 
6

>  <r_i_docking_score>  (1) 
-8.42045599499167

>  <r_i_glide_ligand_efficiency>  (1) 
-0.280681866499722

>  <r_i_glide_ligand_efficiency_sa>  (1) 
-0.872143818430961

>  <r_i_glide_ligand_efficiency_ln>  (1) 
-1.91321935027863

>  <r_i_glide_gscore>  (1) 
-8.42045599499167

>  <r_i_glide_lipo>  (1) 
-2.77581435916471

>  <r_i_glide_hbond>  (1) 
-0.571774143448828

>  <r_i_glide_metal>  (1) 
-0

>  <r_i_glide_rewards>  (1) 
-2.07035193769845

>  <r_i_glide_evdw>  (1) 
-47.1968688964844

>  <r_i_glide_ecoul>  (1) 
-8.8327465057373

>  <r_i_glide_erotb>  (1) 
0.723773380084194

>  <r_i_glide_esite>  (1) 
-0.0415335140790668

>  <r_i_glide_emodel>  (1) 
-93.9958988520516

>  <r_i_glide_energy>  (1) 
-56.0296154022217

>  <r_i_glide_einternal>  (1) 
1.44494158860198e-08

>  <i_i_glide_confnum>  (1) 
1

>  <i_i_glide_posenum>  (1) 
1

>  <r_i_glide_eff_state_penalty>  (1) 
-0

>  <r_i_glide_rmsd>  (1) 
0.0734223484389541

>  <s_glide_core_constrain_type>  (1) 
snapped_core_restrain

$$$$
