lig_CHEMBL3265008
     RDKit          3D

 30 33  0  0  1  0  0  0  0  0999 V2000
    5.6569   -0.4986   16.4219 C   0  0  0  0  0  0  0  0  0  0  0  0
    5.9163    0.4123   15.4395 C   0  0  0  0  0  0  0  0  0  0  0  0
    4.7584    0.5190   14.6994 N   0  0  0  0  0  0  0  0  0  0  0  0
    3.8359   -0.4021   15.2468 C   0  0  0  0  0  0  0  0  0  0  0  0
    4.3863   -1.0476   16.2748 N   0  0  0  0  0  0  0  0  0  0  0  0
    2.5448   -0.4390   14.6494 C   0  0  0  0  0  0  0  0  0  0  0  0
    1.6224   -1.3538   15.1887 N   0  0  0  0  0  0  0  0  0  0  0  0
    0.2381   -1.5453   15.0032 C   0  0  0  0  0  0  0  0  0  0  0  0
   -0.3781   -2.5403   15.7915 C   0  0  0  0  0  0  0  0  0  0  0  0
   -1.7595   -2.7893   15.6856 C   0  0  0  0  0  0  0  0  0  0  0  0
   -2.5476   -2.0505   14.7837 C   0  0  0  0  0  0  0  0  0  0  0  0
   -3.8904   -2.3089   14.6953 O   0  0  0  0  0  0  0  0  0  0  0  0
   -4.2312   -3.1014   13.5692 C   0  0  0  0  0  0  0  0  0  0  0  0
   -1.9597   -1.0415   13.9907 C   0  0  0  0  0  0  0  0  0  0  0  0
   -2.7911   -0.3255   13.1497 O   0  0  0  0  0  0  0  0  0  0  0  0
   -2.1997    0.6241   12.2722 C   0  0  0  0  0  0  0  0  0  0  0  0
   -0.5662   -0.8014   14.1070 C   0  0  0  0  0  0  0  0  0  0  0  0
    2.2224    0.3547   13.6655 N   0  0  0  0  0  0  0  0  0  0  0  0
    3.1475    1.2594   13.1876 C   0  0  0  0  0  0  0  0  0  0  0  0
    2.6860    2.1606   12.1095 C   0  0  0  0  0  0  0  0  0  0  0  0
    3.5861    2.6256   11.1231 C   0  0  0  0  0  0  0  0  0  0  0  0
    3.1488    3.4554   10.0759 C   0  0  0  0  0  0  0  0  0  0  0  0
    1.7989    3.8374    9.9893 C   0  0  0  0  0  0  0  0  0  0  0  0
    1.4016    4.6231    8.9627 F   0  0  0  0  0  0  0  0  0  0  0  0
    0.8811    3.4037   10.9720 C   0  0  0  0  0  0  0  0  0  0  0  0
   -0.5732    3.7551   10.8685 C   0  0  0  0  0  0  0  0  0  0  0  0
   -1.1787    3.7079    9.7997 O   0  0  0  0  0  0  0  0  0  0  0  0
   -1.1605    4.1390   12.0050 N   0  0  0  0  0  0  0  0  0  0  0  0
    1.3368    2.5779   12.0286 C   0  0  0  0  0  0  0  0  0  0  0  0
    4.4325    1.3338   13.6691 C   0  0  0  0  0  0  0  0  0  0  0  0
  1  5  1  0
  1  2  2  0
  2  3  1  0
  3 30  1  0
  3  4  1  0
  4  5  2  0
  4  6  1  0
  6  7  1  0
  6 18  2  0
  7  8  1  0
  8 17  1  0
  8  9  2  0
  9 10  1  0
 10 11  2  0
 11 12  1  0
 11 14  1  0
 12 13  1  0
 14 15  1  0
 14 17  2  0
 15 16  1  0
 18 19  1  0
 19 20  1  0
 19 30  2  0
 20 29  1  0
 20 21  2  0
 21 22  1  0
 22 23  2  0
 23 24  1  0
 23 25  1  0
 25 26  1  0
 25 29  2  0
 26 27  2  0
 26 28  1  0
M  END
>  <s_m_source_file>  (1) 
ligprep_syk.smi

>  <i_m_source_file_index>  (1) 
15

>  <i_lp_mmshare_version>  (1) 
53161

>  <i_f3d_flags>  (1) 
0

>  <s_epik_input>  (1) 
W0NIM11PYyhbY0hdMSljKE9bQ0gzXSlbY0hdW2NIXWMxW05IXWMoYyhuMjMpbltjSF1bY0hdMiluYyhbY0hdMyktYzRbY0hdW2NIXWMoRiljKFtjSF00KUMoPU8pW05IMl0=

>  <s_epik_cmdline>  (1) 
J2VwaWtfcHl0aG9uJywgJy1waHQnLCAnMC4wJywgJy1waCcsICc3LjQnLCAnLXRuJywgJzgnLCAnLW1hJywgJzUwMCcsICctaW1hZScsICc8aW5maWxlLm1hZT4nLCAnLW9tYWUnLCAnPG91dGZpbGUubWFlPic=

>  <r_lp_tautomer_probability>  (1) 
1

>  <r_epik_Ionization_Penalty>  (1) 
  0.0010

>  <r_epik_Ionization_Penalty_Charging>  (1) 
  0.0010

>  <r_epik_Ionization_Penalty_Neutral>  (1) 
  0.0000

>  <r_epik_State_Penalty>  (1) 
 -0.0000

>  <r_epik_Charging_Adjusted_Penalty>  (1) 
0.00102825

>  <i_epik_Tot_Q>  (1) 
0

>  <i_epik_Tot_abs_Q>  (1) 
0

>  <s_lp_Force_Field>  (1) 
S-OPLS

>  <r_lp_Energy>  (1) 
42.3654

>  <b_lp_Chiralities_Consistent>  (1) 
1

>  <s_lp_Variant>  (1) 
lig_CHEMBL3265008-1

>  <s_i_glide_gridfile>  (1) 
glide-grid_SYK-4PV0

>  <i_i_glide_lignum>  (1) 
15

>  <i_i_glide_rotatable_bonds>  (1) 
6

>  <r_i_docking_score>  (1) 
-8.46571985278937

>  <r_i_glide_ligand_efficiency>  (1) 
-0.282190661759646

>  <r_i_glide_ligand_efficiency_sa>  (1) 
-0.876831996102109

>  <r_i_glide_ligand_efficiency_ln>  (1) 
-1.9235037919595

>  <r_i_glide_gscore>  (1) 
-8.46571985278937

>  <r_i_glide_lipo>  (1) 
-2.59923000346566

>  <r_i_glide_hbond>  (1) 
-0.576249180279773

>  <r_i_glide_metal>  (1) 
-0

>  <r_i_glide_rewards>  (1) 
-2.27002928646735

>  <r_i_glide_evdw>  (1) 
-46.4864501953125

>  <r_i_glide_ecoul>  (1) 
-9.10167503356934

>  <r_i_glide_erotb>  (1) 
0.711132002784853

>  <r_i_glide_esite>  (1) 
-0.0417696205604189

>  <r_i_glide_emodel>  (1) 
-92.632767208405

>  <r_i_glide_energy>  (1) 
-55.5881252288818

>  <r_i_glide_einternal>  (1) 
1.78719794519111e-08

>  <i_i_glide_confnum>  (1) 
1

>  <i_i_glide_posenum>  (1) 
1

>  <r_i_glide_eff_state_penalty>  (1) 
-0

>  <r_i_glide_rmsd>  (1) 
0.0808524845120004

>  <s_glide_core_constrain_type>  (1) 
snapped_core_restrain

$$$$
