lig_CHEMBL3265037
     RDKit          3D

 33 38  0  0  1  0  0  0  0  0999 V2000
    0.9961    4.6277    9.1206 C   0  0  0  0  0  0  0  0  0  0  0  0
   -0.2535    4.6699    9.5195 N   0  0  0  0  0  0  0  0  0  0  0  0
   -0.2957    3.9304   10.6563 N   0  0  0  0  0  0  0  0  0  0  0  0
    0.9226    3.3794   11.0093 C   0  0  0  0  0  0  0  0  0  0  0  0
    1.3511    2.5525   12.0609 C   0  0  0  0  0  0  0  0  0  0  0  0
    2.6964    2.1260   12.1191 C   0  0  0  0  0  0  0  0  0  0  0  0
    3.1619    1.2304   13.1958 C   0  0  0  0  0  0  0  0  0  0  0  0
    4.4401    1.3208   13.6873 C   0  0  0  0  0  0  0  0  0  0  0  0
    4.7658    0.5124   14.7233 N   0  0  0  0  0  0  0  0  0  0  0  0
    3.8389   -0.4037   15.2758 C   0  0  0  0  0  0  0  0  0  0  0  0
    4.3872   -1.0350   16.3138 N   0  0  0  0  0  0  0  0  0  0  0  0
    5.6593   -0.4915   16.4555 C   0  0  0  0  0  0  0  0  0  0  0  0
    5.9231    0.4110   15.4671 C   0  0  0  0  0  0  0  0  0  0  0  0
    2.5462   -0.4477   14.6748 C   0  0  0  0  0  0  0  0  0  0  0  0
    1.6042   -1.3370   15.2270 N   0  0  0  0  0  0  0  0  0  0  0  0
    0.2262   -1.5371   15.0082 C   0  0  0  0  0  0  0  0  0  0  0  0
   -0.3981   -2.5598   15.7495 C   0  0  0  0  0  0  0  0  0  0  0  0
   -1.7774   -2.8043   15.6210 C   0  0  0  0  0  0  0  0  0  0  0  0
   -2.5656   -2.0422   14.7343 C   0  0  0  0  0  0  0  0  0  0  0  0
   -3.9430   -2.3049   14.6043 N   0  0  0  0  0  0  0  0  0  0  0  0
   -4.4737   -2.6794   13.2966 C   0  0  0  0  0  0  0  0  0  0  0  0
   -5.1823   -4.0422   13.3739 C   0  0  0  0  0  0  0  0  0  0  0  0
   -6.1317   -4.0378   14.4357 O   0  0  0  0  0  0  0  0  0  0  0  0
   -5.4957   -3.8795   15.7019 C   0  0  0  0  0  0  0  0  0  0  0  0
   -4.7939   -2.5080   15.7744 C   0  0  0  0  0  0  0  0  0  0  0  0
   -1.9606   -1.0088   13.9795 C   0  0  0  0  0  0  0  0  0  0  0  0
   -2.7782   -0.2580   13.1567 O   0  0  0  0  0  0  0  0  0  0  0  0
   -2.1821    0.7208   12.3172 C   0  0  0  0  0  0  0  0  0  0  0  0
   -0.5690   -0.7679   14.1254 C   0  0  0  0  0  0  0  0  0  0  0  0
    2.2367    0.3264   13.6748 N   0  0  0  0  0  0  0  0  0  0  0  0
    3.5888    2.5882   11.1219 C   0  0  0  0  0  0  0  0  0  0  0  0
    3.1538    3.4247   10.0745 C   0  0  0  0  0  0  0  0  0  0  0  0
    1.8054    3.8312    9.9937 C   0  0  0  0  0  0  0  0  0  0  0  0
  1 33  1  0
  1  2  2  0
  2  3  1  0
  3  4  1  0
  4 33  2  0
  4  5  1  0
  5  6  2  0
  6  7  1  0
  6 31  1  0
  7 30  1  0
  7  8  2  0
  8  9  1  0
  9 13  1  0
  9 10  1  0
 10 11  2  0
 10 14  1  0
 11 12  1  0
 12 13  2  0
 14 15  1  0
 14 30  2  0
 15 16  1  0
 16 29  1  0
 16 17  2  0
 17 18  1  0
 18 19  2  0
 19 20  1  0
 19 26  1  0
 20 25  1  0
 20 21  1  0
 21 22  1  0
 22 23  1  0
 23 24  1  0
 24 25  1  0
 26 27  1  0
 26 29  2  0
 27 28  1  0
 31 32  2  0
 32 33  1  0
M  END
>  <s_m_source_file>  (1) 
ligprep_syk.smi

>  <i_m_source_file_index>  (1) 
44

>  <i_lp_mmshare_version>  (1) 
53161

>  <i_f3d_flags>  (1) 
0

>  <s_epik_input>  (1) 
W25IXTFuW2NIXWMoYzEyKVtjSF1bY0hdYyhbY0hdMiktYyhbY0hdMyluYyhjKG4zNCluW2NIXVtjSF00KVtOSF1jNVtjSF1bY0hdYyhjKFtjSF01KU9bQ0gzXSlONltDSDJdW0NIMl1PW0NIMl1bQ0gyXTY=

>  <s_epik_cmdline>  (1) 
J2VwaWtfcHl0aG9uJywgJy1waHQnLCAnMC4wJywgJy1waCcsICc3LjQnLCAnLXRuJywgJzgnLCAnLW1hJywgJzUwMCcsICctaW1hZScsICc8aW5maWxlLm1hZT4nLCAnLW9tYWUnLCAnPG91dGZpbGUubWFlPic=

>  <r_lp_tautomer_probability>  (1) 
1

>  <r_epik_Ionization_Penalty>  (1) 
  0.0009

>  <r_epik_Ionization_Penalty_Charging>  (1) 
  0.0009

>  <r_epik_Ionization_Penalty_Neutral>  (1) 
  0.0000

>  <r_epik_State_Penalty>  (1) 
 -0.0000

>  <r_epik_Charging_Adjusted_Penalty>  (1) 
0.000851558

>  <i_epik_Tot_Q>  (1) 
0

>  <i_epik_Tot_abs_Q>  (1) 
0

>  <s_lp_Force_Field>  (1) 
S-OPLS

>  <r_lp_Energy>  (1) 
53.667

>  <b_lp_Chiralities_Consistent>  (1) 
1

>  <s_lp_Variant>  (1) 
lig_CHEMBL3265037-1

>  <s_i_glide_gridfile>  (1) 
glide-grid_SYK-4PV0

>  <i_i_glide_lignum>  (1) 
46

>  <i_i_glide_rotatable_bonds>  (1) 
5

>  <r_i_docking_score>  (1) 
-7.7765928411398

>  <r_i_glide_ligand_efficiency>  (1) 
-0.235654328519388

>  <r_i_glide_ligand_efficiency_sa>  (1) 
-0.755869347857083

>  <r_i_glide_ligand_efficiency_ln>  (1) 
-1.7294739828267

>  <r_i_glide_gscore>  (1) 
-7.7765928411398

>  <r_i_glide_lipo>  (1) 
-2.73855090908862

>  <r_i_glide_hbond>  (1) 
-0.327985098771653

>  <r_i_glide_metal>  (1) 
-0

>  <r_i_glide_rewards>  (1) 
-1.81394564851696

>  <r_i_glide_evdw>  (1) 
-48.7028121948242

>  <r_i_glide_ecoul>  (1) 
-6.20658588409424

>  <r_i_glide_erotb>  (1) 
0.512428754079254

>  <r_i_glide_esite>  (1) 
-0.0424114464864781

>  <r_i_glide_emodel>  (1) 
-80.559682758793

>  <r_i_glide_energy>  (1) 
-54.9093980789185

>  <r_i_glide_einternal>  (1) 
0.489064872264862

>  <i_i_glide_confnum>  (1) 
5

>  <i_i_glide_posenum>  (1) 
8

>  <r_i_glide_eff_state_penalty>  (1) 
-0

>  <r_i_glide_rmsd>  (1) 
0.078473218143488

>  <s_glide_core_constrain_type>  (1) 
snapped_core_restrain

$$$$
