lig_CHEMBL3264999
     RDKit          3D

 38 42  0  0  1  0  0  0  0  0999 V2000
    5.6304   -0.5138   16.4365 C   0  0  0  0  0  0  0  0  0  0  0  0
    5.8993    0.4095   15.4654 C   0  0  0  0  0  0  0  0  0  0  0  0
    4.7497    0.5203   14.7133 N   0  0  0  0  0  0  0  0  0  0  0  0
    3.8250   -0.4047   15.2510 C   0  0  0  0  0  0  0  0  0  0  0  0
    4.3628   -1.0529   16.2865 N   0  0  0  0  0  0  0  0  0  0  0  0
    2.5337   -0.4297   14.6463 C   0  0  0  0  0  0  0  0  0  0  0  0
    1.6051   -1.3330   15.1905 N   0  0  0  0  0  0  0  0  0  0  0  0
    0.2282   -1.5375   14.9930 C   0  0  0  0  0  0  0  0  0  0  0  0
   -0.3659   -2.5698   15.7471 C   0  0  0  0  0  0  0  0  0  0  0  0
   -1.7415   -2.8422   15.6366 C   0  0  0  0  0  0  0  0  0  0  0  0
   -2.5462   -2.0833   14.7660 C   0  0  0  0  0  0  0  0  0  0  0  0
   -3.8856   -2.3590   14.6783 O   0  0  0  0  0  0  0  0  0  0  0  0
   -4.2216   -3.1265   13.5338 C   0  0  0  0  0  0  0  0  0  0  0  0
   -1.9805   -1.0350   14.0075 C   0  0  0  0  0  0  0  0  0  0  0  0
   -2.8305   -0.3058   13.1997 O   0  0  0  0  0  0  0  0  0  0  0  0
   -2.2582    0.6749   12.3464 C   0  0  0  0  0  0  0  0  0  0  0  0
   -0.5903   -0.7760   14.1248 C   0  0  0  0  0  0  0  0  0  0  0  0
    2.2179    0.3652   13.6624 N   0  0  0  0  0  0  0  0  0  0  0  0
    3.1504    1.2654   13.1919 C   0  0  0  0  0  0  0  0  0  0  0  0
    2.7005    2.1597   12.1074 C   0  0  0  0  0  0  0  0  0  0  0  0
    3.6134    2.6177   11.1280 C   0  0  0  0  0  0  0  0  0  0  0  0
    3.1890    3.4343   10.0642 C   0  0  0  0  0  0  0  0  0  0  0  0
    1.8369    3.8037    9.9627 C   0  0  0  0  0  0  0  0  0  0  0  0
    0.9115    3.3827   10.9399 C   0  0  0  0  0  0  0  0  0  0  0  0
   -0.5372    3.7216   10.7800 C   0  0  0  0  0  0  0  0  0  0  0  0
   -1.0598    3.6578    9.6675 O   0  0  0  0  0  0  0  0  0  0  0  0
   -1.1573    4.1283   11.9035 N   0  0  0  0  0  0  0  0  0  0  0  0
   -2.5148    4.5250   12.0521 C   0  0  0  0  0  0  0  0  0  0  0  0
   -3.5538    4.0750   11.2019 C   0  0  0  0  0  0  0  0  0  0  0  0
   -4.8731    4.5289   11.3875 C   0  0  0  0  0  0  0  0  0  0  0  0
   -5.1860    5.4288   12.4281 C   0  0  0  0  0  0  0  0  0  0  0  0
   -6.6000    5.9128   12.5974 C   0  0  0  0  0  0  0  0  0  0  0  0
   -7.5509    5.3303   12.0836 O   0  0  0  0  0  0  0  0  0  0  0  0
   -6.7484    7.0534   13.2683 N   0  0  0  0  0  0  0  0  0  0  0  0
   -4.1619    5.8132   13.3272 C   0  0  0  0  0  0  0  0  0  0  0  0
   -2.8367    5.3789   13.1255 C   0  0  0  0  0  0  0  0  0  0  0  0
    1.3507    2.5715   12.0095 C   0  0  0  0  0  0  0  0  0  0  0  0
    4.4298    1.3409   13.6860 C   0  0  0  0  0  0  0  0  0  0  0  0
  1  5  1  0
  1  2  2  0
  2  3  1  0
  3 38  1  0
  3  4  1  0
  4  5  2  0
  4  6  1  0
  6  7  1  0
  6 18  2  0
  7  8  1  0
  8 17  1  0
  8  9  2  0
  9 10  1  0
 10 11  2  0
 11 12  1  0
 11 14  1  0
 12 13  1  0
 14 15  1  0
 14 17  2  0
 15 16  1  0
 18 19  1  0
 19 20  1  0
 19 38  2  0
 20 37  1  0
 20 21  2  0
 21 22  1  0
 22 23  2  0
 23 24  1  0
 24 25  1  0
 24 37  2  0
 25 26  2  0
 25 27  1  0
 27 28  1  0
 28 36  1  0
 28 29  2  0
 29 30  1  0
 30 31  2  0
 31 32  1  0
 31 35  1  0
 32 33  2  0
 32 34  1  0
 35 36  2  0
M  END
>  <s_m_source_file>  (1) 
ligprep_syk.smi

>  <i_m_source_file_index>  (1) 
7

>  <i_lp_mmshare_version>  (1) 
53161

>  <i_f3d_flags>  (1) 
0

>  <s_epik_input>  (1) 
W0NIM11PYyhbY0hdMSljKE9bQ0gzXSlbY0hdW2NIXWMxW05IXWMoYyhuMjMpbltjSF1bY0hdMiluYyhbY0hdMyktYzRbY0hdW2NIXVtjSF1jKFtjSF00KUMoPU8pW05IXWM1W2NIXVtjSF1jKEMoPU8pW05IMl0pW2NIXVtjSF01

>  <s_epik_cmdline>  (1) 
J2VwaWtfcHl0aG9uJywgJy1waHQnLCAnMC4wJywgJy1waCcsICc3LjQnLCAnLXRuJywgJzgnLCAnLW1hJywgJzUwMCcsICctaW1hZScsICc8aW5maWxlLm1hZT4nLCAnLW9tYWUnLCAnPG91dGZpbGUubWFlPic=

>  <r_lp_tautomer_probability>  (1) 
1

>  <r_epik_Ionization_Penalty>  (1) 
  0.0009

>  <r_epik_Ionization_Penalty_Charging>  (1) 
  0.0009

>  <r_epik_Ionization_Penalty_Neutral>  (1) 
  0.0000

>  <r_epik_State_Penalty>  (1) 
 -0.0000

>  <r_epik_Charging_Adjusted_Penalty>  (1) 
0.000851558

>  <i_epik_Tot_Q>  (1) 
0

>  <i_epik_Tot_abs_Q>  (1) 
0

>  <s_lp_Force_Field>  (1) 
S-OPLS

>  <r_lp_Energy>  (1) 
55.1121

>  <b_lp_Chiralities_Consistent>  (1) 
1

>  <s_lp_Variant>  (1) 
lig_CHEMBL3264999-1

>  <s_i_glide_gridfile>  (1) 
glide-grid_SYK-4PV0

>  <i_i_glide_lignum>  (1) 
7

>  <i_i_glide_rotatable_bonds>  (1) 
9

>  <r_i_docking_score>  (1) 
-8.17581244974952

>  <r_i_glide_ligand_efficiency>  (1) 
-0.215152959203935

>  <r_i_glide_ligand_efficiency_sa>  (1) 
-0.72333895666658

>  <r_i_glide_ligand_efficiency_ln>  (1) 
-1.76294567220114

>  <r_i_glide_gscore>  (1) 
-8.17581244974952

>  <r_i_glide_lipo>  (1) 
-2.89607951303383

>  <r_i_glide_hbond>  (1) 
-0.56534499809723

>  <r_i_glide_metal>  (1) 
-0

>  <r_i_glide_rewards>  (1) 
-1.51263913394864

>  <r_i_glide_evdw>  (1) 
-55.5277328491211

>  <r_i_glide_ecoul>  (1) 
-7.09657621383667

>  <r_i_glide_erotb>  (1) 
0.712546514268953

>  <r_i_glide_esite>  (1) 
-0.0734222444072225

>  <r_i_glide_emodel>  (1) 
-104.851483688663

>  <r_i_glide_energy>  (1) 
-62.6243090629578

>  <r_i_glide_einternal>  (1) 
1.72509203366644e-07

>  <i_i_glide_confnum>  (1) 
2

>  <i_i_glide_posenum>  (1) 
2

>  <r_i_glide_eff_state_penalty>  (1) 
-0

>  <r_i_glide_rmsd>  (1) 
0.0811716388223749

>  <s_glide_core_constrain_type>  (1) 
snapped_core_restrain

$$$$
