lig_CHEMBL3265033
     RDKit          3D

 33 38  0  0  1  0  0  0  0  0999 V2000
    1.0128    4.7115    9.1346 C   0  0  0  0  0  0  0  0  0  0  0  0
   -0.2140    4.8205    9.5839 N   0  0  0  0  0  0  0  0  0  0  0  0
   -0.2500    4.0793   10.7199 N   0  0  0  0  0  0  0  0  0  0  0  0
    0.9506    3.4662   11.0272 C   0  0  0  0  0  0  0  0  0  0  0  0
    1.3767    2.6219   12.0661 C   0  0  0  0  0  0  0  0  0  0  0  0
    2.7048    2.1428   12.0851 C   0  0  0  0  0  0  0  0  0  0  0  0
    3.1694    1.2414   13.1587 C   0  0  0  0  0  0  0  0  0  0  0  0
    4.4510    1.3228   13.6459 C   0  0  0  0  0  0  0  0  0  0  0  0
    4.7735    0.5150   14.6843 N   0  0  0  0  0  0  0  0  0  0  0  0
    3.8479   -0.4020   15.2341 C   0  0  0  0  0  0  0  0  0  0  0  0
    4.3888   -1.0400   16.2715 N   0  0  0  0  0  0  0  0  0  0  0  0
    5.6554   -0.4934   16.4248 C   0  0  0  0  0  0  0  0  0  0  0  0
    5.9250    0.4110   15.4360 C   0  0  0  0  0  0  0  0  0  0  0  0
    2.5585   -0.4386   14.6352 C   0  0  0  0  0  0  0  0  0  0  0  0
    1.6288   -1.3247   15.2072 N   0  0  0  0  0  0  0  0  0  0  0  0
    0.2561   -1.5320   15.0017 C   0  0  0  0  0  0  0  0  0  0  0  0
   -0.5409   -0.8005   14.0917 C   0  0  0  0  0  0  0  0  0  0  0  0
   -1.9190   -1.0553   13.9827 C   0  0  0  0  0  0  0  0  0  0  0  0
   -2.5225   -2.0454   14.7780 C   0  0  0  0  0  0  0  0  0  0  0  0
   -3.8959   -2.2767   14.6422 N   0  0  0  0  0  0  0  0  0  0  0  0
   -4.1554   -3.4905   13.8742 C   0  0  0  0  0  0  0  0  0  0  0  0
   -5.5611   -3.4800   13.2686 C   0  0  0  0  0  0  0  0  0  0  0  0
   -6.8450   -3.1951   14.5545 S   0  0  0  0  0  0  0  0  0  0  0  0
   -7.6593   -4.4120   14.6819 O   0  0  0  0  0  0  0  0  0  0  0  0
   -7.4786   -1.9023   14.2544 O   0  0  0  0  0  0  0  0  0  0  0  0
   -5.8286   -3.0021   16.0750 C   0  0  0  0  0  0  0  0  0  0  0  0
   -4.6785   -2.0070   15.8546 C   0  0  0  0  0  0  0  0  0  0  0  0
   -1.7308   -2.8017   15.6692 C   0  0  0  0  0  0  0  0  0  0  0  0
   -0.3535   -2.5388   15.7814 C   0  0  0  0  0  0  0  0  0  0  0  0
    2.2409    0.3440   13.6427 N   0  0  0  0  0  0  0  0  0  0  0  0
    3.5820    2.5617   11.0554 C   0  0  0  0  0  0  0  0  0  0  0  0
    3.1479    3.4125   10.0171 C   0  0  0  0  0  0  0  0  0  0  0  0
    1.8156    3.8788    9.9802 C   0  0  0  0  0  0  0  0  0  0  0  0
  1 33  1  0
  1  2  2  0
  2  3  1  0
  3  4  1  0
  4 33  2  0
  4  5  1  0
  5  6  2  0
  6  7  1  0
  6 31  1  0
  7 30  1  0
  7  8  2  0
  8  9  1  0
  9 13  1  0
  9 10  1  0
 10 11  2  0
 10 14  1  0
 11 12  1  0
 12 13  2  0
 14 15  1  0
 14 30  2  0
 15 16  1  0
 16 29  1  0
 16 17  2  0
 17 18  1  0
 18 19  2  0
 19 20  1  0
 19 28  1  0
 20 27  1  0
 20 21  1  0
 21 22  1  0
 22 23  1  0
 23 24  2  0
 23 25  2  0
 23 26  1  0
 26 27  1  0
 28 29  2  0
 31 32  2  0
 32 33  1  0
M  END
>  <s_m_source_file>  (1) 
ligprep_syk.smi

>  <i_m_source_file_index>  (1) 
40

>  <i_lp_mmshare_version>  (1) 
53161

>  <i_f3d_flags>  (1) 
0

>  <s_epik_input>  (1) 
W25IXTFuW2NIXWMoYzEyKVtjSF1bY0hdYyhbY0hdMiktYyhbY0hdMyluYyhjKG4zNCluW2NIXVtjSF00KVtOSF1jNVtjSF1bY0hdYyhbY0hdW2NIXTUpTihbQ0gyXVtDSDJdNilbQ0gyXVtDSDJdUzYoPU8pPU8=

>  <s_epik_cmdline>  (1) 
J2VwaWtfcHl0aG9uJywgJy1waHQnLCAnMC4wJywgJy1waCcsICc3LjQnLCAnLXRuJywgJzgnLCAnLW1hJywgJzUwMCcsICctaW1hZScsICc8aW5maWxlLm1hZT4nLCAnLW9tYWUnLCAnPG91dGZpbGUubWFlPic=

>  <r_lp_tautomer_probability>  (1) 
1

>  <r_epik_Ionization_Penalty>  (1) 
  0.0009

>  <r_epik_Ionization_Penalty_Charging>  (1) 
  0.0009

>  <r_epik_Ionization_Penalty_Neutral>  (1) 
  0.0000

>  <r_epik_State_Penalty>  (1) 
 -0.0000

>  <r_epik_Charging_Adjusted_Penalty>  (1) 
0.000851558

>  <i_epik_Tot_Q>  (1) 
0

>  <i_epik_Tot_abs_Q>  (1) 
0

>  <s_lp_Force_Field>  (1) 
S-OPLS

>  <r_lp_Energy>  (1) 
28.9246

>  <b_lp_Chiralities_Consistent>  (1) 
1

>  <s_lp_Variant>  (1) 
lig_CHEMBL3265033-1

>  <s_i_glide_gridfile>  (1) 
glide-grid_SYK-4PV0

>  <i_i_glide_lignum>  (1) 
41

>  <i_i_glide_rotatable_bonds>  (1) 
4

>  <r_i_docking_score>  (1) 
-8.05670020574561

>  <r_i_glide_ligand_efficiency>  (1) 
-0.24414243047714

>  <r_i_glide_ligand_efficiency_sa>  (1) 
-0.783095226251346

>  <r_i_glide_ligand_efficiency_ln>  (1) 
-1.79176841039672

>  <r_i_glide_gscore>  (1) 
-8.05670020574561

>  <r_i_glide_lipo>  (1) 
-2.70775113133234

>  <r_i_glide_hbond>  (1) 
-0.266711888107617

>  <r_i_glide_metal>  (1) 
-0

>  <r_i_glide_rewards>  (1) 
-1.69283964196669

>  <r_i_glide_evdw>  (1) 
-49.600414276123

>  <r_i_glide_ecoul>  (1) 
-7.69357252120972

>  <r_i_glide_erotb>  (1) 
0.381152021844111

>  <r_i_glide_esite>  (1) 
-0.136492974195463

>  <r_i_glide_emodel>  (1) 
-80.179091380498

>  <r_i_glide_energy>  (1) 
-57.2939867973328

>  <r_i_glide_einternal>  (1) 
5.3341817855835

>  <i_i_glide_confnum>  (1) 
42

>  <i_i_glide_posenum>  (1) 
57

>  <r_i_glide_eff_state_penalty>  (1) 
-0

>  <r_i_glide_rmsd>  (1) 
0.0978817583685373

>  <s_glide_core_constrain_type>  (1) 
snapped_core_restrain

$$$$
