lig_CHEMBL3265018
     RDKit          3D

 29 33  0  0  1  0  0  0  0  0999 V2000
   -0.0908    4.6033    9.4859 C   0  0  0  0  0  0  0  0  0  0  0  0
    1.1564    4.5945    9.0238 N   0  0  0  0  0  0  0  0  0  0  0  0
    1.8091    3.8166    9.9655 C   0  0  0  0  0  0  0  0  0  0  0  0
    3.1596    3.4178   10.0450 C   0  0  0  0  0  0  0  0  0  0  0  0
    3.5899    2.5874   11.1019 C   0  0  0  0  0  0  0  0  0  0  0  0
    2.6900    2.1340   12.1025 C   0  0  0  0  0  0  0  0  0  0  0  0
    3.1453    1.2426   13.1857 C   0  0  0  0  0  0  0  0  0  0  0  0
    4.4173    1.3446   13.6848 C   0  0  0  0  0  0  0  0  0  0  0  0
    4.7508    0.5302   14.7111 N   0  0  0  0  0  0  0  0  0  0  0  0
    3.8378   -0.4051   15.2487 C   0  0  0  0  0  0  0  0  0  0  0  0
    4.3946   -1.0526   16.2725 N   0  0  0  0  0  0  0  0  0  0  0  0
    5.6577   -0.4942   16.4251 C   0  0  0  0  0  0  0  0  0  0  0  0
    5.9070    0.4336   15.4567 C   0  0  0  0  0  0  0  0  0  0  0  0
    2.5448   -0.4496   14.6513 C   0  0  0  0  0  0  0  0  0  0  0  0
    1.6148   -1.3512   15.2046 N   0  0  0  0  0  0  0  0  0  0  0  0
    0.2338   -1.5532   15.0100 C   0  0  0  0  0  0  0  0  0  0  0  0
   -0.3667   -2.5907   15.7557 C   0  0  0  0  0  0  0  0  0  0  0  0
   -1.7442   -2.8554   15.6430 C   0  0  0  0  0  0  0  0  0  0  0  0
   -2.5455   -2.0841   14.7795 C   0  0  0  0  0  0  0  0  0  0  0  0
   -3.8861   -2.3507   14.6871 O   0  0  0  0  0  0  0  0  0  0  0  0
   -4.2233   -3.1223   13.5451 C   0  0  0  0  0  0  0  0  0  0  0  0
   -1.9759   -1.0334   14.0287 C   0  0  0  0  0  0  0  0  0  0  0  0
   -2.8235   -0.2952   13.2246 O   0  0  0  0  0  0  0  0  0  0  0  0
   -2.2529    0.6720   12.3532 C   0  0  0  0  0  0  0  0  0  0  0  0
   -0.5848   -0.7837   14.1472 C   0  0  0  0  0  0  0  0  0  0  0  0
    2.2248    0.3313   13.6597 N   0  0  0  0  0  0  0  0  0  0  0  0
    1.3440    2.5594   12.0452 C   0  0  0  0  0  0  0  0  0  0  0  0
    0.9148    3.3761   10.9856 C   0  0  0  0  0  0  0  0  0  0  0  0
   -0.3052    3.9244   10.6253 N   0  0  0  0  0  0  0  0  0  0  0  0
  1 29  1  0
  1  2  2  0
  2  3  1  0
  3 28  2  0
  3  4  1  0
  4  5  2  0
  5  6  1  0
  6  7  1  0
  6 27  2  0
  7 26  1  0
  7  8  2  0
  8  9  1  0
  9 13  1  0
  9 10  1  0
 10 11  2  0
 10 14  1  0
 11 12  1  0
 12 13  2  0
 14 15  1  0
 14 26  2  0
 15 16  1  0
 16 25  1  0
 16 17  2  0
 17 18  1  0
 18 19  2  0
 19 20  1  0
 19 22  1  0
 20 21  1  0
 22 23  1  0
 22 25  2  0
 23 24  1  0
 27 28  1  0
 28 29  1  0
M  END
>  <s_m_source_file>  (1) 
ligprep_syk.smi

>  <i_m_source_file_index>  (1) 
25

>  <i_lp_mmshare_version>  (1) 
53161

>  <i_f3d_flags>  (1) 
0

>  <s_epik_input>  (1) 
bjFbY0hdW25IXWMoYzEyKVtjSF1jKFtjSF1bY0hdMiktYyhbY0hdMyluYyhjKG4zNCluW2NIXVtjSF00KVtOSF1jNVtjSF1bY0hdYyhPW0NIM10pYyhbY0hdNSlPW0NIM10=

>  <s_epik_cmdline>  (1) 
J2VwaWtfcHl0aG9uJywgJy1waHQnLCAnMC4wJywgJy1waCcsICc3LjQnLCAnLXRuJywgJzgnLCAnLW1hJywgJzUwMCcsICctaW1hZScsICc8aW5maWxlLm1hZT4nLCAnLW9tYWUnLCAnPG91dGZpbGUubWFlPic=

>  <r_lp_tautomer_probability>  (1) 
1

>  <r_epik_Ionization_Penalty>  (1) 
  0.0193

>  <r_epik_Ionization_Penalty_Charging>  (1) 
  0.0009

>  <r_epik_Ionization_Penalty_Neutral>  (1) 
  0.0185

>  <r_epik_State_Penalty>  (1) 
 -0.0000

>  <r_epik_Charging_Adjusted_Penalty>  (1) 
0.000851558

>  <i_epik_Tot_Q>  (1) 
0

>  <i_epik_Tot_abs_Q>  (1) 
0

>  <s_lp_Force_Field>  (1) 
S-OPLS

>  <r_lp_Energy>  (1) 
44.3022

>  <b_lp_Chiralities_Consistent>  (1) 
1

>  <s_lp_Variant>  (1) 
lig_CHEMBL3265018-1

>  <s_i_glide_gridfile>  (1) 
glide-grid_SYK-4PV0

>  <i_i_glide_lignum>  (1) 
25

>  <i_i_glide_rotatable_bonds>  (1) 
5

>  <r_i_docking_score>  (1) 
-7.84329563487523

>  <r_i_glide_ligand_efficiency>  (1) 
-0.270458470168112

>  <r_i_glide_ligand_efficiency_sa>  (1) 
-0.830934107614076

>  <r_i_glide_ligand_efficiency_ln>  (1) 
-1.79591581156972

>  <r_i_glide_gscore>  (1) 
-7.84329563487523

>  <r_i_glide_lipo>  (1) 
-2.58994494104085

>  <r_i_glide_hbond>  (1) 
-0.327518439329387

>  <r_i_glide_metal>  (1) 
-0

>  <r_i_glide_rewards>  (1) 
-2.33501823987731

>  <r_i_glide_evdw>  (1) 
-46.3575820922852

>  <r_i_glide_ecoul>  (1) 
-6.16094350814819

>  <r_i_glide_erotb>  (1) 
0.651766528382292

>  <r_i_glide_esite>  (1) 
-0.000559912173488697

>  <r_i_glide_emodel>  (1) 
-83.3063645198967

>  <r_i_glide_energy>  (1) 
-52.5185256004333

>  <r_i_glide_einternal>  (1) 
-2.7068026042798e-07

>  <i_i_glide_confnum>  (1) 
2

>  <i_i_glide_posenum>  (1) 
1

>  <r_i_glide_eff_state_penalty>  (1) 
-0

>  <r_i_glide_rmsd>  (1) 
0.074338054129141

>  <s_glide_core_constrain_type>  (1) 
snapped_core_restrain

$$$$
